<?xml version="1.0" encoding="UTF-8"?>

<!-- generated on 2021-07-14 15:14:57 by Eclipse SUMO duarouter Version 1.9.1
<configuration xmlns:xsi="http://www.w3.org/2001/XMLSchema-instance" xsi:noNamespaceSchemaLocation="http://sumo.dlr.de/xsd/duarouterConfiguration.xsd">

    <input>
        <net-file value="unreal_layout_custom_widths_final_pedestrians.net.xml"/>
        <additional-files value="additional.xml"/>
        <route-files value="pedcrossing.trip.xml"/>
    </input>

    <output>
        <output-file value="pedcrossing.rou.xml"/>
        <alternatives-output value="pedcrossing.rou.alt.xml"/>
    </output>

    <time>
        <begin value="0"/>
        <end value="800"/>
    </time>

    <report>
        <no-warnings value="true"/>
        <ignore-errors value="true"/>
        <no-step-log value="true"/>
    </report>

</configuration>
-->

<routes xmlns:xsi="http://www.w3.org/2001/XMLSchema-instance" xsi:noNamespaceSchemaLocation="http://sumo.dlr.de/xsd/routes_file.xsd">
    <vType id="Mazada_3" length="5.00" minGap="2.50" maxSpeed="45.00" speedFactor="normc(0.90,0.10,0.20,2.00)" vClass="passenger" guiShape="passenger" accel="0.5" decel="2" sigma="0"/>
    <vehicle id="car0" type="Mazada_3" depart="4.00">
        <route edges="e4 n2 n1"/>
    </vehicle>
    <!-- <vehicle id="car0" type="Mazada_3" depart="4.00">
        <route edges="n2 e2 n4"/>
    </vehicle>
    <vehicle id="car1" type="Mazada_3" depart="5.00">
        <route edges="s2 e5 n5 n4"/>
    </vehicle>
    <vehicle id="car2" type="Mazada_3" depart="7.00">
        <route edges="w6 n5"/>
    </vehicle>
    <vehicle id="car4" type="Mazada_3" depart="14.00">
        <route edges="n3 n2 n1"/>
    </vehicle>
    <vehicle id="car6" type="Mazada_3" depart="21.00">
        <route edges="e1 s2 e5"/>
    </vehicle>
    <vehicle id="car7" type="Mazada_3" depart="23.00">
        <route edges="w3 s5 e6"/>
    </vehicle>
    <vehicle id="car8" type="Mazada_3" depart="23.00">
        <route edges="w6 w5 n2 w1"/>
    </vehicle>
    <vehicle id="car9" type="Mazada_3" depart="30.00">
        <route edges="n3 e5 n5 n4"/>
    </vehicle>
    <vehicle id="car10" type="Mazada_3" depart="33.00">
        <route edges="s2 w4"/>
    </vehicle>
    <vehicle id="car11" type="Mazada_3" depart="42.00">
        <route edges="s5 w5 n2 n1"/>
    </vehicle>
    <vehicle id="car13" type="Mazada_3" depart="59.00">
        <route edges="s1 s2 e5 s6"/>
    </vehicle>
    <vehicle id="car14" type="Mazada_3" depart="63.00">
        <route edges="w5 s3"/>
    </vehicle>
    <vehicle id="car15" type="Mazada_3" depart="70.00">
        <route edges="n3 e5 s6"/>
    </vehicle>
    <vehicle id="car16" type="Mazada_3" depart="71.00">
        <route edges="e4 s3"/>
    </vehicle>
    <vehicle id="car18" type="Mazada_3" depart="77.00">
        <route edges="e4 e5 s6"/>
    </vehicle>
    <vehicle id="car20" type="Mazada_3" depart="87.00">
        <route edges="s5 e6"/>
    </vehicle>
    <vehicle id="car21" type="Mazada_3" depart="89.00">
        <route edges="w3 s5 w5 n2"/>
    </vehicle>
    <vehicle id="car22" type="Mazada_3" depart="90.00">
        <route edges="w6 n5 e3"/>
    </vehicle>
    <vehicle id="car25" type="Mazada_3" depart="113.00">
        <route edges="n3 e5 n5 n4"/>
    </vehicle>
    <vehicle id="car26" type="Mazada_3" depart="128.00">
        <route edges="n3 e5 n5 e3"/>
    </vehicle>
    <vehicle id="car27" type="Mazada_3" depart="132.00">
        <route edges="e4 e5 n5"/>
    </vehicle>
    <vehicle id="car28" type="Mazada_3" depart="134.00">
        <route edges="e4 e5 n5"/>
    </vehicle>
    <vehicle id="car29" type="Mazada_3" depart="136.00">
        <route edges="w5"/>
    </vehicle>
    <vehicle id="car30" type="Mazada_3" depart="141.00">
        <route edges="n6 n5"/>
    </vehicle>
    <vehicle id="car31" type="Mazada_3" depart="145.00">
        <route edges="s4 w2 s2 s3"/>
    </vehicle>
    <vehicle id="car32" type="Mazada_3" depart="146.00">
        <route edges="e1 s2 e5 s6"/>
    </vehicle>
    <vehicle id="car33" type="Mazada_3" depart="148.00">
        <route edges="w6 n5 w2"/>
    </vehicle>
    <vehicle id="car35" type="Mazada_3" depart="156.00">
        <route edges="s5 s6"/>
    </vehicle>
    <vehicle id="car36" type="Mazada_3" depart="161.00">
        <route edges="n2 e2 s5 w5 w4"/>
    </vehicle>
    <vehicle id="car37" type="Mazada_3" depart="162.00">
        <route edges="s2 e5 s6"/>
    </vehicle>
    <vehicle id="car38" type="Mazada_3" depart="164.00">
        <route edges="n3 n2"/>
    </vehicle>
    <vehicle id="car39" type="Mazada_3" depart="173.00">
        <route edges="w5 n2"/>
    </vehicle>
    <vehicle id="car40" type="Mazada_3" depart="175.00">
        <route edges="s1 s2 s3"/>
    </vehicle>
    <vehicle id="car41" type="Mazada_3" depart="176.00">
        <route edges="s5 w5 n2 e2 e3"/>
    </vehicle>
    <vehicle id="car42" type="Mazada_3" depart="178.00">
        <route edges="e2 s5 w5 n2 n1"/>
    </vehicle>
    <vehicle id="car43" type="Mazada_3" depart="181.00">
        <route edges="n6 w5"/>
    </vehicle>
    <vehicle id="car44" type="Mazada_3" depart="183.00">
        <route edges="n3 e5 s6"/>
    </vehicle>
    <vehicle id="car45" type="Mazada_3" depart="185.00">
        <route edges="n5 w2"/>
    </vehicle>
    <vehicle id="car46" type="Mazada_3" depart="186.00">
        <route edges="s2 s3"/>
    </vehicle>
    <vehicle id="car47" type="Mazada_3" depart="187.00">
        <route edges="e1 n1"/>
    </vehicle>
    <vehicle id="car48" type="Mazada_3" depart="188.00">
        <route edges="w5 n2 e2 e3"/>
    </vehicle>
    <vehicle id="car49" type="Mazada_3" depart="189.00">
        <route edges="e5 n5 w2 n1"/>
    </vehicle>
    <vehicle id="car50" type="Mazada_3" depart="193.00">
        <route edges="n5 n4"/>
    </vehicle>
    <vehicle id="car52" type="Mazada_3" depart="195.00">
        <route edges="e1 s2 s3"/>
    </vehicle>
    <vehicle id="car53" type="Mazada_3" depart="204.00">
        <route edges="s2 e5 n5 w2 w1"/>
    </vehicle>
    <vehicle id="car54" type="Mazada_3" depart="205.00">
        <route edges="s4 s5 w5 w4"/>
    </vehicle>
    <vehicle id="car55" type="Mazada_3" depart="207.00">
        <route edges="e1 s2 s3"/>
    </vehicle>
    <vehicle id="car56" type="Mazada_3" depart="210.00">
        <route edges="e4 n2 n1"/>
    </vehicle>
    <vehicle id="car57" type="Mazada_3" depart="210.00">
        <route edges="n6 w5 s3"/>
    </vehicle>
    <vehicle id="car58" type="Mazada_3" depart="216.00">
        <route edges="s4 s5 w5"/>
    </vehicle>
    <vehicle id="car59" type="Mazada_3" depart="217.00">
        <route edges="n5 w2 s2"/>
    </vehicle>
    <vehicle id="car60" type="Mazada_3" depart="219.00">
        <route edges="n6 w5"/>
    </vehicle>
    <vehicle id="car61" type="Mazada_3" depart="222.00">
        <route edges="n3 e5 n5"/>
    </vehicle>
    <vehicle id="car62" type="Mazada_3" depart="222.00">
        <route edges="e4 e5"/>
    </vehicle>
    <vehicle id="car63" type="Mazada_3" depart="225.00">
        <route edges="s2 e5 n5"/>
    </vehicle>
    <vehicle id="car64" type="Mazada_3" depart="232.00">
        <route edges="s5 w5 w4"/>
    </vehicle>
    <vehicle id="car65" type="Mazada_3" depart="232.00">
        <route edges="n6 n5 w2 s2 e5"/>
    </vehicle>
    <vehicle id="car66" type="Mazada_3" depart="233.00">
        <route edges="w6 n5"/>
    </vehicle>
    <vehicle id="car67" type="Mazada_3" depart="235.00">
        <route edges="s1 s2 e5 n5"/>
    </vehicle>
    <vehicle id="car68" type="Mazada_3" depart="239.00">
        <route edges="w3 w2 s2"/>
    </vehicle>
    <vehicle id="car69" type="Mazada_3" depart="240.00">
        <route edges="s1 w1"/>
    </vehicle>
    <vehicle id="car70" type="Mazada_3" depart="243.00">
        <route edges="n5 e3"/>
    </vehicle>
    <vehicle id="car71" type="Mazada_3" depart="249.00">
        <route edges="n2 e2"/>
    </vehicle>
    <vehicle id="car72" type="Mazada_3" depart="252.00">
        <route edges="e4 e5"/>
    </vehicle>
    <vehicle id="car73" type="Mazada_3" depart="253.00">
        <route edges="n6 w5 n2"/>
    </vehicle>
    <vehicle id="car74" type="Mazada_3" depart="264.00">
        <route edges="s5 w5 n2 n1"/>
    </vehicle>
    <vehicle id="car75" type="Mazada_3" depart="265.00">
        <route edges="n2 e2 s5 s6"/>
    </vehicle>
    <vehicle id="car76" type="Mazada_3" depart="270.00">
        <route edges="s2 e5 n5 e3"/>
    </vehicle>
    <vehicle id="car79" type="Mazada_3" depart="277.00">
        <route edges="s2 e5 n5"/>
    </vehicle>
    <vehicle id="car80" type="Mazada_3" depart="281.00">
        <route edges="e5 n5 e3"/>
    </vehicle>
    <vehicle id="car81" type="Mazada_3" depart="284.00">
        <route edges="n2 e2 s5 s6"/>
    </vehicle>
    <vehicle id="car82" type="Mazada_3" depart="288.00">
        <route edges="w5 n2 e2 e3"/>
    </vehicle>
    <vehicle id="car83" type="Mazada_3" depart="291.00">
        <route edges="s1 e2 s5 w5"/>
    </vehicle>
    <vehicle id="car84" type="Mazada_3" depart="294.00">
        <route edges="n5 w2 n1"/>
    </vehicle>
    <vehicle id="car86" type="Mazada_3" depart="297.00">
        <route edges="n2"/>
    </vehicle>
    <vehicle id="car87" type="Mazada_3" depart="300.00">
        <route edges="e1 s2 e5 s6"/>
    </vehicle>
    <vehicle id="car88" type="Mazada_3" depart="303.00">
        <route edges="s5 w5 n2 n1"/>
    </vehicle>
    <vehicle id="car89" type="Mazada_3" depart="304.00">
        <route edges="s1 s2 e5 s6"/>
    </vehicle>
    <vehicle id="car90" type="Mazada_3" depart="308.00">
        <route edges="w3 s5"/>
    </vehicle>
    <vehicle id="car91" type="Mazada_3" depart="313.00">
        <route edges="w6 w5"/>
    </vehicle>
    <vehicle id="car92" type="Mazada_3" depart="317.00">
        <route edges="n6 n5 w2"/>
    </vehicle>
    <vehicle id="car93" type="Mazada_3" depart="318.00">
        <route edges="s4 w2 s2 s3"/>
    </vehicle>
    <vehicle id="car94" type="Mazada_3" depart="319.00">
        <route edges="s1 e2 e3"/>
    </vehicle>
    <vehicle id="car95" type="Mazada_3" depart="322.00">
        <route edges="s4 w2 w1"/>
    </vehicle>
    <vehicle id="car96" type="Mazada_3" depart="327.00">
        <route edges="e2 e3"/>
    </vehicle>
    <vehicle id="car97" type="Mazada_3" depart="331.00">
        <route edges="s5 w5 w4"/>
    </vehicle>
    <vehicle id="car98" type="Mazada_3" depart="333.00">
        <route edges="e1 s2 s3"/>
    </vehicle>
    <vehicle id="car99" type="Mazada_3" depart="334.00">
        <route edges="w5 s3"/>
    </vehicle>
    <vehicle id="car100" type="Mazada_3" depart="335.00">
        <route edges="s5"/>
    </vehicle>
    <vehicle id="car101" type="Mazada_3" depart="336.00">
        <route edges="n5 w2 w1"/>
    </vehicle>
    <vehicle id="car102" type="Mazada_3" depart="338.00">
        <route edges="e1 e2 s5"/>
    </vehicle>
    <vehicle id="car103" type="Mazada_3" depart="339.00">
        <route edges="e5 e6"/>
    </vehicle>
    <vehicle id="car104" type="Mazada_3" depart="340.00">
        <route edges="w3 w2 s2 e5 n5"/>
    </vehicle>
    <vehicle id="car105" type="Mazada_3" depart="343.00">
        <route edges="w6 n5 w2"/>
    </vehicle>
    <vehicle id="car106" type="Mazada_3" depart="344.00">
        <route edges="n6 n5 w2"/>
    </vehicle>
    <vehicle id="car107" type="Mazada_3" depart="345.00">
        <route edges="e2 n4"/>
    </vehicle>
    <vehicle id="car109" type="Mazada_3" depart="348.00">
        <route edges="n6 n5 w2 s2"/>
    </vehicle>
    <vehicle id="car110" type="Mazada_3" depart="349.00">
        <route edges="n5 w2 w1"/>
    </vehicle>
    <vehicle id="car111" type="Mazada_3" depart="350.00">
        <route edges="w5 n2 w1"/>
    </vehicle>
    <vehicle id="car112" type="Mazada_3" depart="355.00">
        <route edges="e4 e5 n5 w2"/>
    </vehicle>
    <vehicle id="car113" type="Mazada_3" depart="363.00">
        <route edges="n6 w5 n2"/>
    </vehicle>
    <vehicle id="car114" type="Mazada_3" depart="366.00">
        <route edges="w5"/>
    </vehicle>
    <vehicle id="car115" type="Mazada_3" depart="368.00">
        <route edges="s2 e5 n5 w2 w1"/>
    </vehicle>
    <vehicle id="car116" type="Mazada_3" depart="371.00">
        <route edges="n5 w2 s2 e5 e6"/>
    </vehicle>
    <vehicle id="car117" type="Mazada_3" depart="377.00">
        <route edges="n6 w5 n2"/>
    </vehicle>
    <vehicle id="car118" type="Mazada_3" depart="378.00">
        <route edges="e2 s5"/>
    </vehicle>
    <vehicle id="car119" type="Mazada_3" depart="383.00">
        <route edges="w3 w2 s2 e5"/>
    </vehicle>
    <vehicle id="car120" type="Mazada_3" depart="387.00">
        <route edges="s2 e5 n5 e3"/>
    </vehicle>
    <vehicle id="car121" type="Mazada_3" depart="390.00">
        <route edges="e1 s2 e5 s6"/>
    </vehicle>
    <vehicle id="car122" type="Mazada_3" depart="404.00">
        <route edges="e4 n2 n1"/>
    </vehicle>
    <vehicle id="car123" type="Mazada_3" depart="405.00">
        <route edges="e5 n5 e3"/>
    </vehicle>
    <vehicle id="car124" type="Mazada_3" depart="407.00">
        <route edges="w5 n2 e2 s5 s6"/>
    </vehicle>
    <vehicle id="car126" type="Mazada_3" depart="413.00">
        <route edges="s5 w5 n2 e2 e3"/>
    </vehicle>
    <vehicle id="car127" type="Mazada_3" depart="416.00">
        <route edges="w2 n1"/>
    </vehicle>
    <vehicle id="car128" type="Mazada_3" depart="416.00">
        <route edges="w2 s2 e5"/>
    </vehicle>
    <vehicle id="car129" type="Mazada_3" depart="419.00">
        <route edges="n6 w5"/>
    </vehicle>
    <vehicle id="car130" type="Mazada_3" depart="419.00">
        <route edges="n3 w4"/>
    </vehicle>
    <vehicle id="car131" type="Mazada_3" depart="420.00">
        <route edges="e5 e6"/>
    </vehicle>
    <vehicle id="car132" type="Mazada_3" depart="424.00">
        <route edges="e5 n5 n4"/>
    </vehicle>
    <vehicle id="car133" type="Mazada_3" depart="424.00">
        <route edges="n3 e5 n5 w2"/>
    </vehicle>
    <vehicle id="car134" type="Mazada_3" depart="430.00">
        <route edges="s2 e5 e6"/>
    </vehicle>
    <vehicle id="car135" type="Mazada_3" depart="432.00">
        <route edges="e1 e2 e3"/>
    </vehicle>
    <vehicle id="car136" type="Mazada_3" depart="433.00">
        <route edges="n2"/>
    </vehicle>
    <vehicle id="car137" type="Mazada_3" depart="447.00">
        <route edges="s4 w2 s2 e5"/>
    </vehicle>
    <vehicle id="car138" type="Mazada_3" depart="447.00">
        <route edges="n6 n5"/>
    </vehicle>
    <vehicle id="car139" type="Mazada_3" depart="453.00">
        <route edges="n3 n2 w1"/>
    </vehicle>
    <vehicle id="car140" type="Mazada_3" depart="454.00">
        <route edges="n3 e5 n5"/>
    </vehicle>
    <vehicle id="car141" type="Mazada_3" depart="455.00">
        <route edges="w6 w5 n2 w1"/>
    </vehicle>
    <vehicle id="car142" type="Mazada_3" depart="460.00">
        <route edges="n6 n5 n4"/>
    </vehicle>
    <vehicle id="car143" type="Mazada_3" depart="468.00">
        <route edges="e4 e5 n5 n4"/>
    </vehicle>
    <vehicle id="car144" type="Mazada_3" depart="470.00">
        <route edges="w3 w2 s2 w4"/>
    </vehicle>
    <vehicle id="car145" type="Mazada_3" depart="471.00">
        <route edges="w6 n5 w2 s2 e5"/>
    </vehicle>
    <vehicle id="car146" type="Mazada_3" depart="473.00">
        <route edges="s1 e2 n4"/>
    </vehicle>
    <vehicle id="car147" type="Mazada_3" depart="478.00">
        <route edges="n5"/>
    </vehicle>
    <vehicle id="car148" type="Mazada_3" depart="479.00">
        <route edges="s2 e5 s6"/>
    </vehicle>
    <vehicle id="car150" type="Mazada_3" depart="483.00">
        <route edges="e1 e2 s5"/>
    </vehicle>
    <vehicle id="car151" type="Mazada_3" depart="486.00">
        <route edges="w3 w2 s2 e5 n5"/>
    </vehicle>
    <vehicle id="car152" type="Mazada_3" depart="488.00">
        <route edges="n5 w2 s2 e5 e6"/>
    </vehicle>
    <vehicle id="car153" type="Mazada_3" depart="493.00">
        <route edges="n5 n4"/>
    </vehicle>
    <vehicle id="car154" type="Mazada_3" depart="506.00">
        <route edges="w6 w5 w4"/>
    </vehicle>
    <vehicle id="car155" type="Mazada_3" depart="511.00">
        <route edges="s4 w2"/>
    </vehicle>
    <vehicle id="car156" type="Mazada_3" depart="511.00">
        <route edges="n2 e2 s5"/>
    </vehicle>
    <vehicle id="car157" type="Mazada_3" depart="515.00">
        <route edges="n3 e5 e6"/>
    </vehicle>
    <vehicle id="car158" type="Mazada_3" depart="521.00">
        <route edges="e5 n5"/>
    </vehicle>
    <vehicle id="car159" type="Mazada_3" depart="523.00">
        <route edges="s4 s5 w5 w4"/>
    </vehicle>
    <vehicle id="car160" type="Mazada_3" depart="529.00">
        <route edges="w3 w2 s2 s3"/>
    </vehicle>
    <vehicle id="car162" type="Mazada_3" depart="535.00">
        <route edges="w2 s2 e5 s6"/>
    </vehicle>
    <vehicle id="car164" type="Mazada_3" depart="536.00">
        <route edges="w5 n2 e2 e3"/>
    </vehicle>
    <vehicle id="car165" type="Mazada_3" depart="537.00">
        <route edges="w2 s2 s3"/>
    </vehicle>
    <vehicle id="car166" type="Mazada_3" depart="548.00">
        <route edges="n2 e2 s5"/>
    </vehicle>
    <vehicle id="car167" type="Mazada_3" depart="551.00">
        <route edges="e1 e2 n4"/>
    </vehicle>
    <vehicle id="car168" type="Mazada_3" depart="552.00">
        <route edges="e1 s2 s3"/>
    </vehicle>
    <vehicle id="car170" type="Mazada_3" depart="559.00">
        <route edges="w6 n5"/>
    </vehicle>
    <vehicle id="car171" type="Mazada_3" depart="561.00">
        <route edges="e4 e5 n5 w2"/>
    </vehicle>
    <vehicle id="car172" type="Mazada_3" depart="565.00">
        <route edges="e2 s5 w5 n2 w1"/>
    </vehicle>
    <vehicle id="car173" type="Mazada_3" depart="570.00">
        <route edges="s4 w2 s2"/>
    </vehicle>
    <vehicle id="car174" type="Mazada_3" depart="571.00">
        <route edges="e5 n5 w2"/>
    </vehicle>
    <vehicle id="car175" type="Mazada_3" depart="572.00">
        <route edges="n6 w5 n2 n1"/>
    </vehicle>
    <vehicle id="car176" type="Mazada_3" depart="572.00">
        <route edges="n2 n1"/>
    </vehicle>
    <vehicle id="car177" type="Mazada_3" depart="580.00">
        <route edges="w3 w2 n1"/>
    </vehicle>
    <vehicle id="car179" type="Mazada_3" depart="584.00">
        <route edges="s4 w2 s2 e5"/>
    </vehicle>
    <vehicle id="car180" type="Mazada_3" depart="589.00">
        <route edges="e5"/>
    </vehicle>
    <vehicle id="car181" type="Mazada_3" depart="591.00">
        <route edges="e4 e5"/>
    </vehicle>
    <vehicle id="car183" type="Mazada_3" depart="600.00">
        <route edges="s5 w5"/>
    </vehicle>
    <vehicle id="car184" type="Mazada_3" depart="602.00">
        <route edges="e5 s6"/>
    </vehicle>
    <vehicle id="car185" type="Mazada_3" depart="604.00">
        <route edges="e4 n2 e2 s5"/>
    </vehicle>
    <vehicle id="car188" type="Mazada_3" depart="606.00">
        <route edges="n2 e2 s5 s6"/>
    </vehicle>
    <vehicle id="car189" type="Mazada_3" depart="606.00">
        <route edges="w2"/>
    </vehicle>
    <vehicle id="car190" type="Mazada_3" depart="606.00">
        <route edges="e4 n2 e2 s5 w5"/>
    </vehicle>
    <vehicle id="car192" type="Mazada_3" depart="611.00">
        <route edges="e4 e5 e6"/>
    </vehicle>
    <vehicle id="car193" type="Mazada_3" depart="612.00">
        <route edges="e1 s2 e5 n5"/>
    </vehicle>
    <vehicle id="car195" type="Mazada_3" depart="617.00">
        <route edges="w6 n5 w2 s2 e5"/>
    </vehicle>
    <vehicle id="car196" type="Mazada_3" depart="620.00">
        <route edges="w2 s2"/>
    </vehicle>
    <vehicle id="car197" type="Mazada_3" depart="622.00">
        <route edges="e2 s5 w5 n2 n1"/>
    </vehicle>
    <vehicle id="car198" type="Mazada_3" depart="622.00">
        <route edges="n5 w2 s2"/>
    </vehicle>
    <vehicle id="car200" type="Mazada_3" depart="628.00">
        <route edges="s2"/>
    </vehicle>
    <vehicle id="car201" type="Mazada_3" depart="634.00">
        <route edges="w3 w2 s2 w4"/>
    </vehicle>
    <vehicle id="car203" type="Mazada_3" depart="641.00">
        <route edges="e5 n5 w2 w1"/>
    </vehicle>
    <vehicle id="car204" type="Mazada_3" depart="646.00">
        <route edges="n3 n2 n1"/>
    </vehicle>
    <vehicle id="car205" type="Mazada_3" depart="647.00">
        <route edges="n3 n2 e2"/>
    </vehicle>
    <vehicle id="car206" type="Mazada_3" depart="652.00">
        <route edges="w6 n5 w2 s2 e5"/>
    </vehicle>
    <vehicle id="car207" type="Mazada_3" depart="654.00">
        <route edges="e4 n2 e2"/>
    </vehicle>
    <vehicle id="car208" type="Mazada_3" depart="666.00">
        <route edges="s5 w5 w4"/>
    </vehicle>
    <vehicle id="car209" type="Mazada_3" depart="668.00">
        <route edges="s2 w4"/>
    </vehicle>
    <vehicle id="car210" type="Mazada_3" depart="670.00">
        <route edges="s5"/>
    </vehicle>
    <vehicle id="car211" type="Mazada_3" depart="671.00">
        <route edges="s4 s5 w5 w4"/>
    </vehicle>
    <vehicle id="car212" type="Mazada_3" depart="675.00">
        <route edges="w5 n2 e2 n4"/>
    </vehicle>
    <vehicle id="car213" type="Mazada_3" depart="681.00">
        <route edges="w2 s2 s3"/>
    </vehicle>
    <vehicle id="car214" type="Mazada_3" depart="682.00">
        <route edges="s2 e5"/>
    </vehicle>
    <vehicle id="car215" type="Mazada_3" depart="683.00">
        <route edges="s4 w2 s2"/>
    </vehicle>
    <vehicle id="car216" type="Mazada_3" depart="687.00">
        <route edges="e5 s6"/>
    </vehicle>
    <vehicle id="car217" type="Mazada_3" depart="687.00">
        <route edges="s1 e2"/>
    </vehicle>
    <vehicle id="car219" type="Mazada_3" depart="690.00">
        <route edges="s5"/>
    </vehicle>
    <vehicle id="car220" type="Mazada_3" depart="691.00">
        <route edges="s4 w2 n1"/>
    </vehicle>
    <vehicle id="car222" type="Mazada_3" depart="698.00">
        <route edges="e1 e2 e3"/>
    </vehicle>
    <vehicle id="car223" type="Mazada_3" depart="699.00">
        <route edges="e4 e5 n5 n4"/>
    </vehicle>
    <vehicle id="car224" type="Mazada_3" depart="705.00">
        <route edges="n6 e6"/>
    </vehicle>
    <vehicle id="car225" type="Mazada_3" depart="705.00">
        <route edges="e5 n5 n4"/>
    </vehicle>
    <vehicle id="car227" type="Mazada_3" depart="715.00">
        <route edges="n3 n2 e2 s5"/>
    </vehicle>
    <vehicle id="car228" type="Mazada_3" depart="720.00">
        <route edges="n5 e3"/>
    </vehicle>
    <vehicle id="car229" type="Mazada_3" depart="724.00">
        <route edges="e4 e5 n5 e3"/>
    </vehicle>
    <vehicle id="car230" type="Mazada_3" depart="724.00">
        <route edges="e4 e5 s6"/>
    </vehicle>
    <vehicle id="car231" type="Mazada_3" depart="729.00">
        <route edges="s2 e5"/>
    </vehicle>
    <vehicle id="car232" type="Mazada_3" depart="729.00">
        <route edges="s1 e2 s5"/>
    </vehicle>
    <vehicle id="car233" type="Mazada_3" depart="731.00">
        <route edges="s4 w2"/>
    </vehicle>
    <vehicle id="car234" type="Mazada_3" depart="732.00">
        <route edges="n6 w5 n2 e2 s5"/>
    </vehicle>
    <vehicle id="car235" type="Mazada_3" depart="735.00">
        <route edges="w3 w2 s2"/>
    </vehicle>
    <vehicle id="car236" type="Mazada_3" depart="739.00">
        <route edges="s1 s2 e5 s6"/>
    </vehicle>
    <vehicle id="car238" type="Mazada_3" depart="742.00">
        <route edges="e4 s3"/>
    </vehicle>
    <vehicle id="car239" type="Mazada_3" depart="743.00">
        <route edges="e2 s5 e6"/>
    </vehicle>
    <vehicle id="car240" type="Mazada_3" depart="744.00">
        <route edges="e1 e2"/>
    </vehicle>
    <vehicle id="car241" type="Mazada_3" depart="745.00">
        <route edges="s4 s5 w5 w4"/>
    </vehicle>
    <vehicle id="car242" type="Mazada_3" depart="745.00">
        <route edges="s4 s5 w5 n2"/>
    </vehicle>
    <vehicle id="car243" type="Mazada_3" depart="749.00">
        <route edges="w6 w5 s3"/>
    </vehicle>
    <vehicle id="car245" type="Mazada_3" depart="759.00">
        <route edges="w6 s6"/>
    </vehicle>
    <vehicle id="car246" type="Mazada_3" depart="763.00">
        <route edges="s1 s2 e5 n5"/>
    </vehicle>
    <vehicle id="car248" type="Mazada_3" depart="768.00">
        <route edges="n3 e5 s6"/>
    </vehicle>
    <vehicle id="car249" type="Mazada_3" depart="768.00">
        <route edges="n2 e2 s5"/>
    </vehicle>
    <vehicle id="car250" type="Mazada_3" depart="769.00">
        <route edges="s1 e2"/>
    </vehicle>
    <vehicle id="car251" type="Mazada_3" depart="770.00">
        <route edges="n5 w2 s2 s3"/>
    </vehicle>
    <vehicle id="car252" type="Mazada_3" depart="770.00">
        <route edges="e4 e5 n5 n4"/>
    </vehicle>
    <vehicle id="car253" type="Mazada_3" depart="780.00">
        <route edges="n6 n5"/>
    </vehicle>
    <vehicle id="car254" type="Mazada_3" depart="783.00">
        <route edges="n3 n2 w1"/>
    </vehicle>
    <vehicle id="car255" type="Mazada_3" depart="785.00">
        <route edges="w6 s6"/>
    </vehicle>
    <vehicle id="car256" type="Mazada_3" depart="789.00">
        <route edges="w6 n5 w2 s2 e5"/>
    </vehicle>
    <vehicle id="car257" type="Mazada_3" depart="791.00">
        <route edges="w5"/>
    </vehicle>
    <vehicle id="car258" type="Mazada_3" depart="794.00">
        <route edges="s4 s5 e6"/>
    </vehicle>
    <vehicle id="car259" type="Mazada_3" depart="796.00">
        <route edges="e1 s2 e5 n5 w2"/>
    </vehicle>
    <vehicle id="car260" type="Mazada_3" depart="797.00">
        <route edges="w3 w2 s2"/>
    </vehicle> -->
</routes>
