<?xml version="1.0" encoding="UTF-8"?>

<!-- generated on 2021-06-23 11:41:36 by Eclipse SUMO netedit Version 1.9.2
<configuration xmlns:xsi="http://www.w3.org/2001/XMLSchema-instance" xsi:noNamespaceSchemaLocation="http://sumo.dlr.de/xsd/netconvertConfiguration.xsd">

    <input>
        <sumo-net-file value="C:\Users\karumanchi.1\Box\SIMCenter\AV_consortium_project\sumo_layout\SUMo_UE_correlation_check\DownTown_Layouts\unreal_layout_custom_widths_final_pedestrians_V3.net.xml"/>
    </input>

    <output>
        <output-file value="C:\Users\karumanchi.1\Box\SIMCenter\AV_consortium_project\sumo_layout\SUMo_UE_correlation_check\DownTown_Layouts\unreal_layout_custom_widths_final_pedestrians_V3.net.xml"/>
    </output>

    <processing>
        <geometry.min-radius.fix.railways value="false"/>
        <geometry.max-grade.fix value="false"/>
        <offset.disable-normalization value="true"/>
        <lefthand value="false"/>
    </processing>

    <junctions>
        <no-internal-links value="false"/>
        <no-turnarounds value="true"/>
        <junctions.corner-detail value="0"/>
        <junctions.limit-turn-speed value="-1"/>
        <rectangular-lane-cut value="false"/>
    </junctions>

    <pedestrian>
        <walkingareas value="false"/>
    </pedestrian>

    <report>
        <aggregate-warnings value="5"/>
    </report>

</configuration>
-->

<net version="1.9" xmlns:xsi="http://www.w3.org/2001/XMLSchema-instance" xsi:noNamespaceSchemaLocation="http://sumo.dlr.de/xsd/net_file.xsd">

    <location netOffset="0.00,0.00" convBoundary="-227.15,-245.80,178.65,76.00" origBoundary="-10000000000.00,-10000000000.00,10000000000.00,10000000000.00" projParameter="!"/>

    <edge id=":j1_0" function="internal">
        <lane id=":j1_0_0" index="0" disallow="pedestrian" speed="13.89" length="5.84" width="3.50" shape="-97.75,-16.50 -98.14,-19.23 -99.31,-21.19 -100.00,-21.60"/>
    </edge>
    <edge id=":j1_1" function="internal">
        <lane id=":j1_1_0" index="0" disallow="pedestrian rail_fast" speed="13.89" length="24.88" width="3.50" shape="-97.75,-16.50 -97.78,-41.28"/>
        <lane id=":j1_1_1" index="1" disallow="pedestrian rail_fast" speed="13.89" length="24.88" width="3.50" shape="-94.25,-16.50 -94.28,-41.38"/>
        <lane id=":j1_1_2" index="2" disallow="pedestrian rail_fast" speed="13.89" length="24.88" width="3.50" shape="-90.75,-16.50 -90.78,-41.49"/>
    </edge>
    <edge id=":j1_4" function="internal">
        <lane id=":j1_4_0" index="0" disallow="pedestrian" speed="13.89" length="7.03" width="3.50" shape="-90.75,-16.50 -89.70,-22.30 -89.01,-23.20"/>
    </edge>
    <edge id=":j1_18" function="internal">
        <lane id=":j1_18_0" index="0" disallow="pedestrian" speed="13.89" length="4.24" width="3.50" shape="-100.00,-21.60 -101.27,-22.36 -104.00,-22.75"/>
    </edge>
    <edge id=":j1_19" function="internal">
        <lane id=":j1_19_0" index="0" disallow="pedestrian" speed="13.89" length="17.30" width="3.50" shape="-89.01,-23.20 -86.54,-26.44 -81.28,-28.92 -73.92,-29.75"/>
    </edge>
    <edge id=":j1_5" function="internal">
        <lane id=":j1_5_0" index="0" disallow="pedestrian" speed="13.89" length="5.90" width="3.50" shape="-73.92,-22.75 -76.69,-22.36 -78.67,-21.19 -79.08,-20.50"/>
    </edge>
    <edge id=":j1_6" function="internal">
        <lane id=":j1_6_0" index="0" disallow="pedestrian" speed="13.89" length="30.08" width="3.50" shape="-73.92,-22.75 -104.00,-22.75"/>
        <lane id=":j1_6_1" index="1" disallow="pedestrian" speed="13.89" length="30.08" width="3.50" shape="-73.92,-26.25 -104.00,-26.25"/>
    </edge>
    <edge id=":j1_8" function="internal">
        <lane id=":j1_8_0" index="0" disallow="pedestrian rail_fast" speed="13.89" length="8.93" width="3.50" shape="-73.92,-26.25 -81.12,-27.20 -82.58,-28.00"/>
    </edge>
    <edge id=":j1_20" function="internal">
        <lane id=":j1_20_0" index="0" disallow="pedestrian" speed="13.89" length="4.24" width="3.50" shape="-79.08,-20.50 -79.85,-19.23 -80.25,-16.50"/>
    </edge>
    <edge id=":j1_21" function="internal">
        <lane id=":j1_21_0" index="0" disallow="pedestrian rail_fast" speed="13.89" length="16.81" width="3.50" shape="-82.58,-28.00 -86.34,-30.06 -89.55,-34.82 -90.78,-41.49"/>
    </edge>
    <edge id=":j1_9" function="internal">
        <lane id=":j1_9_0" index="0" disallow="pedestrian rail_fast" speed="13.89" length="7.55" width="3.50" shape="-80.28,-41.80 -79.79,-38.06 -78.56,-35.39 -77.92,-34.86"/>
    </edge>
    <edge id=":j1_10" function="internal">
        <lane id=":j1_10_0" index="0" disallow="pedestrian rail_fast" speed="13.89" length="25.19" width="3.50" shape="-80.28,-41.80 -80.25,-16.50"/>
        <lane id=":j1_10_1" index="1" disallow="pedestrian rail_fast" speed="13.89" length="25.19" width="3.50" shape="-83.78,-41.69 -83.75,-16.50"/>
        <lane id=":j1_10_2" index="2" disallow="pedestrian rail_fast" speed="13.89" length="25.19" width="3.50" shape="-87.28,-41.59 -87.25,-16.50"/>
    </edge>
    <edge id=":j1_13" function="internal">
        <lane id=":j1_13_0" index="0" disallow="pedestrian rail_fast" speed="13.89" length="8.37" width="3.50" shape="-87.28,-41.59 -88.15,-34.88 -89.02,-33.53"/>
    </edge>
    <edge id=":j1_22" function="internal">
        <lane id=":j1_22_0" index="0" disallow="pedestrian rail_fast" speed="13.89" length="4.44" width="3.50" shape="-77.92,-34.86 -76.61,-33.78 -73.92,-33.25"/>
    </edge>
    <edge id=":j1_23" function="internal">
        <lane id=":j1_23_0" index="0" disallow="pedestrian rail_fast" speed="13.89" length="17.65" width="3.50" shape="-89.02,-33.53 -91.23,-30.09 -96.51,-27.21 -104.00,-26.25"/>
    </edge>
    <edge id=":j1_14" function="internal">
        <lane id=":j1_14_0" index="0" disallow="pedestrian rail_fast" speed="13.89" length="7.54" width="3.50" shape="-104.00,-33.25 -101.19,-33.75 -99.21,-35.26 -98.30,-37.26"/>
    </edge>
    <edge id=":j1_15" function="internal">
        <lane id=":j1_15_0" index="0" disallow="pedestrian" speed="13.89" length="30.08" width="3.50" shape="-104.00,-33.25 -73.92,-33.25"/>
        <lane id=":j1_15_1" index="1" disallow="pedestrian" speed="13.89" length="30.08" width="3.50" shape="-104.00,-29.75 -73.92,-29.75"/>
    </edge>
    <edge id=":j1_17" function="internal">
        <lane id=":j1_17_0" index="0" disallow="pedestrian" speed="13.89" length="9.52" width="3.50" shape="-104.00,-29.75 -96.67,-28.92 -94.73,-28.00"/>
    </edge>
    <edge id=":j1_24" function="internal">
        <lane id=":j1_24_0" index="0" disallow="pedestrian rail_fast" speed="13.89" length="4.08" width="3.50" shape="-98.30,-37.26 -98.08,-37.77 -97.78,-41.28"/>
    </edge>
    <edge id=":j1_25" function="internal">
        <lane id=":j1_25_0" index="0" disallow="pedestrian" speed="13.89" length="14.73" width="3.50" shape="-94.73,-28.00 -91.44,-26.44 -88.30,-22.30 -87.25,-16.50"/>
    </edge>
    <edge id=":j1_c0" function="crossing" crossingEdges="n1 s1">
        <lane id=":j1_c0_0" index="0" allow="pedestrian" speed="1.00" length="21.00" width="4.00" shape="-78.50,-18.50 -99.50,-18.50"/>
    </edge>
    <edge id=":j1_c1" function="crossing" crossingEdges="e2 w2">
        <lane id=":j1_c1_0" index="0" allow="pedestrian" speed="1.00" length="14.00" width="4.00" shape="-75.92,-35.00 -75.92,-21.00"/>
    </edge>
    <edge id=":j1_c2" function="crossing" crossingEdges="s2 n2">
        <lane id=":j1_c2_0" index="0" allow="pedestrian" speed="1.00" length="21.00" width="4.00" shape="-99.47,-39.23 -78.47,-39.85"/>
    </edge>
    <edge id=":j1_c3" function="crossing" crossingEdges="w1 e1">
        <lane id=":j1_c3_0" index="0" allow="pedestrian" speed="1.00" length="14.00" width="4.00" shape="-102.00,-21.00 -102.00,-35.00"/>
    </edge>
    <edge id=":j1_w0" function="walkingarea">
        <lane id=":j1_w0_0" index="0" allow="pedestrian" speed="1.00" length="3.67" width="4.00" shape="-100.00,-21.00 -104.00,-21.00 -104.00,-18.00 -102.50,-16.50 -99.50,-16.50 -99.50,-20.50"/>
    </edge>
    <edge id=":j1_w1" function="walkingarea">
        <lane id=":j1_w1_0" index="0" allow="pedestrian" speed="1.00" length="3.70" width="4.00" shape="-78.50,-20.50 -78.50,-16.50 -75.50,-16.50 -73.92,-18.00 -73.92,-21.00 -77.92,-21.00"/>
    </edge>
    <edge id=":j1_w2" function="walkingarea">
        <lane id=":j1_w2_0" index="0" allow="pedestrian" speed="1.00" length="4.89" width="4.00" shape="-77.92,-35.00 -73.92,-35.00 -73.92,-38.00 -75.54,-41.94 -78.53,-41.85 -78.41,-37.85"/>
    </edge>
    <edge id=":j1_w3" function="walkingarea">
        <lane id=":j1_w3_0" index="0" allow="pedestrian" speed="1.00" length="4.50" width="4.00" shape="-99.41,-37.23 -99.53,-41.22 -102.52,-41.14 -104.00,-38.00 -104.00,-35.00 -100.00,-35.00"/>
    </edge>
    <edge id=":j2_0" function="internal">
        <lane id=":j2_0_0" index="0" disallow="pedestrian" speed="13.89" length="5.84" width="3.50" shape="40.85,-16.50 40.46,-19.23 39.29,-21.19 38.60,-21.60"/>
    </edge>
    <edge id=":j2_1" function="internal">
        <lane id=":j2_1_0" index="0" disallow="pedestrian" speed="13.89" length="23.03" width="3.50" shape="40.85,-16.50 40.85,-39.53"/>
        <lane id=":j2_1_1" index="1" disallow="pedestrian" speed="13.89" length="23.03" width="3.50" shape="44.35,-16.50 44.35,-39.53"/>
    </edge>
    <edge id=":j2_3" function="internal">
        <lane id=":j2_3_0" index="0" disallow="pedestrian rail_fast" speed="13.89" length="12.37" width="3.50" shape="44.35,-16.50 45.52,-22.37 49.04,-26.53 49.90,-26.89"/>
    </edge>
    <edge id=":j2_16" function="internal">
        <lane id=":j2_16_0" index="0" disallow="pedestrian" speed="13.89" length="4.24" width="3.50" shape="38.60,-21.60 37.33,-22.36 34.60,-22.75"/>
    </edge>
    <edge id=":j2_17" function="internal">
        <lane id=":j2_17_0" index="0" disallow="pedestrian rail_fast" speed="13.89" length="13.68" width="3.50" shape="49.90,-26.89 54.91,-28.99 63.12,-29.75"/>
    </edge>
    <edge id=":j2_4" function="internal">
        <lane id=":j2_4_0" index="0" disallow="pedestrian rail_fast" speed="13.89" length="7.11" width="3.50" shape="63.05,-22.75 59.59,-22.39 57.12,-21.23 56.58,-20.50"/>
    </edge>
    <edge id=":j2_5" function="internal">
        <lane id=":j2_5_0" index="0" disallow="pedestrian rail_fast" speed="13.89" length="28.47" width="3.50" shape="63.05,-22.75 34.60,-22.75"/>
        <lane id=":j2_5_1" index="1" disallow="pedestrian rail_fast" speed="13.89" length="28.47" width="3.50" shape="63.08,-26.25 34.60,-26.25"/>
    </edge>
    <edge id=":j2_7" function="internal">
        <lane id=":j2_7_0" index="0" disallow="pedestrian rail_fast" speed="13.89" length="10.40" width="3.50" shape="63.08,-26.25 54.89,-27.15 52.91,-28.00"/>
    </edge>
    <edge id=":j2_18" function="internal">
        <lane id=":j2_18_0" index="0" disallow="pedestrian rail_fast" speed="13.89" length="4.36" width="3.50" shape="56.58,-20.50 55.64,-19.26 55.15,-16.50"/>
    </edge>
    <edge id=":j2_19" function="internal">
        <lane id=":j2_19_0" index="0" disallow="pedestrian rail_fast" speed="13.89" length="15.50" width="3.50" shape="52.91,-28.00 49.03,-29.66 45.52,-33.79 44.35,-39.53"/>
    </edge>
    <edge id=":j2_8" function="internal">
        <lane id=":j2_8_0" index="0" disallow="pedestrian rail_fast" speed="13.89" length="7.45" width="3.50" shape="55.15,-39.53 55.65,-36.81 57.15,-34.86 59.16,-33.91"/>
    </edge>
    <edge id=":j2_9" function="internal">
        <lane id=":j2_9_0" index="0" disallow="pedestrian" speed="13.89" length="23.03" width="3.50" shape="55.15,-39.53 55.15,-16.50"/>
        <lane id=":j2_9_1" index="1" disallow="pedestrian" speed="13.89" length="23.03" width="3.50" shape="51.65,-39.53 51.65,-16.50"/>
    </edge>
    <edge id=":j2_11" function="internal">
        <lane id=":j2_11_0" index="0" disallow="pedestrian" speed="13.89" length="12.57" width="3.50" shape="51.65,-39.53 50.58,-33.72 47.39,-29.57 46.10,-28.97"/>
    </edge>
    <edge id=":j2_20" function="internal">
        <lane id=":j2_20_0" index="0" disallow="pedestrian rail_fast" speed="13.89" length="4.07" width="3.50" shape="59.16,-33.91 59.65,-33.67 63.15,-33.25"/>
    </edge>
    <edge id=":j2_21" function="internal">
        <lane id=":j2_21_0" index="0" disallow="pedestrian" speed="13.89" length="11.97" width="3.50" shape="46.10,-28.97 42.06,-27.08 34.60,-26.25"/>
    </edge>
    <edge id=":j2_12" function="internal">
        <lane id=":j2_12_0" index="0" disallow="pedestrian" speed="13.89" length="5.87" width="3.50" shape="34.60,-33.25 37.33,-33.64 39.29,-34.82 39.71,-35.53"/>
    </edge>
    <edge id=":j2_13" function="internal">
        <lane id=":j2_13_0" index="0" disallow="pedestrian rail_fast" speed="13.89" length="28.53" width="3.50" shape="34.60,-33.25 63.15,-33.25"/>
        <lane id=":j2_13_1" index="1" disallow="pedestrian rail_fast" speed="13.89" length="28.53" width="3.50" shape="34.60,-29.75 63.12,-29.75"/>
    </edge>
    <edge id=":j2_15" function="internal">
        <lane id=":j2_15_0" index="0" disallow="pedestrian" speed="13.89" length="9.69" width="3.50" shape="34.60,-29.75 42.06,-28.92 44.04,-28.00"/>
    </edge>
    <edge id=":j2_22" function="internal">
        <lane id=":j2_22_0" index="0" disallow="pedestrian" speed="13.89" length="4.23" width="3.50" shape="39.71,-35.53 40.46,-36.78 40.85,-39.53"/>
    </edge>
    <edge id=":j2_23" function="internal">
        <lane id=":j2_23_0" index="0" disallow="pedestrian" speed="13.89" length="14.82" width="3.50" shape="44.04,-28.00 47.39,-26.44 50.58,-22.30 51.65,-16.50"/>
    </edge>
    <edge id=":j2_c0" function="crossing" crossingEdges="n4 s4">
        <lane id=":j2_c0_0" index="0" allow="pedestrian" speed="1.00" length="17.80" width="4.00" shape="56.90,-18.50 39.10,-18.50"/>
    </edge>
    <edge id=":j2_c1" function="crossing" crossingEdges="e3 w3">
        <lane id=":j2_c1_0" index="0" allow="pedestrian" speed="1.00" length="14.00" width="4.00" shape="61.17,-35.02 61.03,-21.02"/>
    </edge>
    <edge id=":j2_c2" function="crossing" crossingEdges="s5 n5">
        <lane id=":j2_c2_0" index="0" allow="pedestrian" speed="1.00" length="17.80" width="4.00" shape="39.10,-37.53 56.90,-37.53"/>
    </edge>
    <edge id=":j2_c3" function="crossing" crossingEdges="w2 e2">
        <lane id=":j2_c3_0" index="0" allow="pedestrian" speed="1.00" length="14.00" width="4.00" shape="36.60,-21.00 36.60,-35.00"/>
    </edge>
    <edge id=":j2_w0" function="walkingarea">
        <lane id=":j2_w0_0" index="0" allow="pedestrian" speed="1.00" length="3.67" width="4.00" shape="38.60,-21.00 34.60,-21.00 34.60,-18.00 36.10,-16.50 39.10,-16.50 39.10,-20.50"/>
    </edge>
    <edge id=":j2_w1" function="walkingarea">
        <lane id=":j2_w1_0" index="0" allow="pedestrian" speed="1.00" length="4.46" width="4.00" shape="56.90,-20.50 56.90,-16.50 59.90,-16.50 63.00,-18.00 63.03,-21.00 59.03,-21.04"/>
    </edge>
    <edge id=":j2_w2" function="walkingarea">
        <lane id=":j2_w2_0" index="0" allow="pedestrian" speed="1.00" length="4.55" width="4.00" shape="59.17,-35.04 63.17,-35.00 63.20,-38.00 59.90,-39.53 56.90,-39.53 56.90,-35.53"/>
    </edge>
    <edge id=":j2_w3" function="walkingarea">
        <lane id=":j2_w3_0" index="0" allow="pedestrian" speed="1.00" length="3.68" width="4.00" shape="39.10,-35.53 39.10,-39.53 36.10,-39.53 34.60,-38.00 34.60,-35.00 38.60,-35.00"/>
    </edge>
    <edge id=":j3_0" function="internal">
        <lane id=":j3_0_0" index="0" disallow="pedestrian rail_fast" speed="13.89" length="9.18" width="3.50" shape="-75.78,-112.89 -76.34,-116.34 -77.96,-118.81 -80.34,-120.15"/>
    </edge>
    <edge id=":j3_1" function="internal">
        <lane id=":j3_1_0" index="0" disallow="pedestrian rail_fast" speed="13.89" length="28.45" width="3.50" shape="-75.78,-112.89 -75.66,-141.38"/>
        <lane id=":j3_1_1" index="1" disallow="pedestrian rail_fast" speed="13.89" length="28.45" width="3.50" shape="-72.28,-112.93 -72.16,-141.38"/>
        <lane id=":j3_1_2" index="2" disallow="pedestrian rail_fast" speed="13.89" length="28.45" width="3.50" shape="-68.78,-112.96 -68.66,-141.38"/>
    </edge>
    <edge id=":j3_4" function="internal">
        <lane id=":j3_4_0" index="0" disallow="pedestrian rail_fast" speed="13.89" length="9.93" width="3.50" shape="-68.78,-112.96 -67.80,-121.14 -66.99,-122.64"/>
    </edge>
    <edge id=":j3_18" function="internal">
        <lane id=":j3_18_0" index="0" disallow="pedestrian rail_fast" speed="13.89" length="4.07" width="3.50" shape="-80.34,-120.15 -80.62,-120.31 -84.33,-120.84"/>
    </edge>
    <edge id=":j3_19" function="internal">
        <lane id=":j3_19_0" index="0" disallow="pedestrian rail_fast" speed="13.89" length="18.82" width="3.50" shape="-66.99,-122.64 -64.66,-126.98 -59.36,-130.48 -51.91,-131.65"/>
    </edge>
    <edge id=":j3_5" function="internal">
        <lane id=":j3_5_0" index="0" disallow="pedestrian rail_fast" speed="13.89" length="7.37" width="3.50" shape="-51.91,-120.85 -54.73,-120.36 -56.73,-118.90 -57.62,-117.07"/>
    </edge>
    <edge id=":j3_6" function="internal">
        <lane id=":j3_6_0" index="0" disallow="pedestrian rail_fast" speed="13.89" length="32.40" width="3.50" shape="-51.91,-120.85 -84.33,-120.84"/>
        <lane id=":j3_6_1" index="1" disallow="pedestrian rail_fast" speed="13.89" length="32.40" width="3.50" shape="-51.91,-124.35 -84.30,-124.34"/>
    </edge>
    <edge id=":j3_8" function="internal">
        <lane id=":j3_8_0" index="0" disallow="pedestrian" speed="13.89" length="15.02" width="3.50" shape="-51.91,-124.35 -59.23,-125.41 -64.47,-128.61 -65.23,-129.90"/>
    </edge>
    <edge id=":j3_20" function="internal">
        <lane id=":j3_20_0" index="0" disallow="pedestrian rail_fast" speed="13.89" length="4.09" width="3.50" shape="-57.62,-117.07 -57.91,-116.47 -58.28,-113.07"/>
    </edge>
    <edge id=":j3_21" function="internal">
        <lane id=":j3_21_0" index="0" disallow="pedestrian" speed="13.89" length="12.21" width="3.50" shape="-65.23,-129.90 -67.61,-133.93 -68.66,-141.38"/>
    </edge>
    <edge id=":j3_9" function="internal">
        <lane id=":j3_9_0" index="0" disallow="pedestrian" speed="13.89" length="5.84" width="3.50" shape="-58.16,-141.39 -57.77,-138.66 -56.60,-136.71 -55.91,-136.30"/>
    </edge>
    <edge id=":j3_10" function="internal">
        <lane id=":j3_10_0" index="0" disallow="pedestrian rail_fast" speed="13.89" length="28.36" width="3.50" shape="-58.16,-141.39 -58.28,-113.07"/>
        <lane id=":j3_10_1" index="1" disallow="pedestrian rail_fast" speed="13.89" length="28.36" width="3.50" shape="-61.66,-141.39 -61.78,-113.03"/>
        <lane id=":j3_10_2" index="2" disallow="pedestrian rail_fast" speed="13.89" length="28.36" width="3.50" shape="-65.16,-141.39 -65.28,-113.00"/>
    </edge>
    <edge id=":j3_13" function="internal">
        <lane id=":j3_13_0" index="0" disallow="pedestrian rail_fast" speed="13.89" length="8.69" width="3.50" shape="-65.16,-141.39 -66.35,-133.86 -66.95,-132.97"/>
    </edge>
    <edge id=":j3_22" function="internal">
        <lane id=":j3_22_0" index="0" disallow="pedestrian" speed="13.89" length="4.24" width="3.50" shape="-55.91,-136.30 -54.65,-135.54 -51.91,-135.15"/>
    </edge>
    <edge id=":j3_23" function="internal">
        <lane id=":j3_23_0" index="0" disallow="pedestrian rail_fast" speed="13.89" length="20.58" width="3.50" shape="-66.95,-132.97 -69.94,-128.51 -75.92,-125.33 -84.30,-124.34"/>
    </edge>
    <edge id=":j3_14" function="internal">
        <lane id=":j3_14_0" index="0" disallow="pedestrian rail_fast" speed="13.89" length="7.58" width="3.50" shape="-84.19,-135.14 -80.46,-135.50 -77.79,-136.66 -77.21,-137.37"/>
    </edge>
    <edge id=":j3_15" function="internal">
        <lane id=":j3_15_0" index="0" disallow="pedestrian rail_fast" speed="13.89" length="32.29" width="3.50" shape="-84.19,-135.14 -51.91,-135.15"/>
        <lane id=":j3_15_1" index="1" disallow="pedestrian rail_fast" speed="13.89" length="32.29" width="3.50" shape="-84.22,-131.64 -51.91,-131.65"/>
    </edge>
    <edge id=":j3_17" function="internal">
        <lane id=":j3_17_0" index="0" disallow="pedestrian rail_fast" speed="13.89" length="16.11" width="3.50" shape="-84.22,-131.64 -76.01,-130.40 -70.11,-126.89 -69.62,-126.09"/>
    </edge>
    <edge id=":j3_24" function="internal">
        <lane id=":j3_24_0" index="0" disallow="pedestrian rail_fast" speed="13.89" length="4.41" width="3.50" shape="-77.21,-137.37 -76.19,-138.62 -75.66,-141.38"/>
    </edge>
    <edge id=":j3_25" function="internal">
        <lane id=":j3_25_0" index="0" disallow="pedestrian rail_fast" speed="13.89" length="14.07" width="3.50" shape="-69.62,-126.09 -66.53,-121.08 -65.28,-113.00"/>
    </edge>
    <edge id=":j3_c0" function="crossing" crossingEdges="n2 s2">
        <lane id=":j3_c0_0" index="0" allow="pedestrian" speed="1.00" length="21.00" width="4.00" shape="-56.55,-115.08 -77.55,-114.87"/>
    </edge>
    <edge id=":j3_c1" function="crossing" crossingEdges="e5 w5">
        <lane id=":j3_c1_0" index="0" allow="pedestrian" speed="1.00" length="17.80" width="4.00" shape="-53.91,-136.90 -53.91,-119.10"/>
    </edge>
    <edge id=":j3_c2" function="crossing" crossingEdges="s3 n3">
        <lane id=":j3_c2_0" index="0" allow="pedestrian" speed="1.00" length="21.00" width="4.00" shape="-77.41,-139.37 -56.41,-139.40"/>
    </edge>
    <edge id=":j3_c3" function="crossing" crossingEdges="w4 e4">
        <lane id=":j3_c3_0" index="0" allow="pedestrian" speed="1.00" length="17.80" width="4.00" shape="-82.35,-119.07 -82.17,-136.87"/>
    </edge>
    <edge id=":j3_w0" function="walkingarea">
        <lane id=":j3_w0_0" index="0" allow="pedestrian" speed="1.00" length="5.48" width="4.00" shape="-80.35,-119.05 -84.35,-119.09 -84.38,-116.09 -80.53,-112.85 -77.53,-112.88 -77.57,-116.87"/>
    </edge>
    <edge id=":j3_w1" function="walkingarea">
        <lane id=":j3_w1_0" index="0" allow="pedestrian" speed="1.00" length="4.44" width="4.00" shape="-56.57,-117.08 -56.53,-113.08 -53.53,-113.11 -51.91,-116.10 -51.91,-119.10 -55.91,-119.10"/>
    </edge>
    <edge id=":j3_w2" function="walkingarea">
        <lane id=":j3_w2_0" index="0" allow="pedestrian" speed="1.00" length="3.67" width="4.00" shape="-55.91,-136.90 -51.91,-136.90 -51.91,-139.90 -53.41,-141.40 -56.41,-141.40 -56.41,-137.40"/>
    </edge>
    <edge id=":j3_w3" function="walkingarea">
        <lane id=":j3_w3_0" index="0" allow="pedestrian" speed="1.00" length="4.80" width="4.00" shape="-77.41,-137.37 -77.41,-141.37 -80.41,-141.37 -84.14,-139.89 -84.17,-136.89 -80.17,-136.85"/>
    </edge>
    <edge id=":j4_0" function="internal">
        <lane id=":j4_0_0" index="0" disallow="pedestrian" speed="13.89" length="5.84" width="3.50" shape="40.85,-114.60 40.46,-117.33 39.29,-119.29 38.60,-119.70"/>
    </edge>
    <edge id=":j4_1" function="internal">
        <lane id=":j4_1_0" index="0" disallow="pedestrian" speed="13.89" length="26.80" width="3.50" shape="40.85,-114.60 40.85,-141.40"/>
        <lane id=":j4_1_1" index="1" disallow="pedestrian" speed="13.89" length="26.80" width="3.50" shape="44.35,-114.60 44.35,-141.40"/>
    </edge>
    <edge id=":j4_3" function="internal">
        <lane id=":j4_3_0" index="0" disallow="pedestrian" speed="13.89" length="13.02" width="3.50" shape="44.35,-114.60 45.88,-120.65 49.86,-126.14"/>
    </edge>
    <edge id=":j4_16" function="internal">
        <lane id=":j4_16_0" index="0" disallow="pedestrian" speed="13.89" length="4.24" width="3.50" shape="38.60,-119.70 37.33,-120.46 34.60,-120.85"/>
    </edge>
    <edge id=":j4_17" function="internal">
        <lane id=":j4_17_0" index="0" disallow="pedestrian" speed="13.89" length="13.02" width="3.50" shape="49.86,-126.14 55.35,-130.12 61.40,-131.65"/>
    </edge>
    <edge id=":j4_4" function="internal">
        <lane id=":j4_4_0" index="0" disallow="pedestrian" speed="13.89" length="5.84" width="3.50" shape="61.40,-120.85 58.67,-120.46 56.71,-119.29 56.30,-118.60"/>
    </edge>
    <edge id=":j4_5" function="internal">
        <lane id=":j4_5_0" index="0" disallow="pedestrian" speed="13.89" length="26.80" width="3.50" shape="61.40,-120.85 34.60,-120.85"/>
        <lane id=":j4_5_1" index="1" disallow="pedestrian" speed="13.89" length="26.80" width="3.50" shape="61.40,-124.35 34.60,-124.35"/>
    </edge>
    <edge id=":j4_7" function="internal">
        <lane id=":j4_7_0" index="0" disallow="pedestrian" speed="13.89" length="13.02" width="3.50" shape="61.40,-124.35 55.35,-125.88 49.86,-129.86"/>
    </edge>
    <edge id=":j4_18" function="internal">
        <lane id=":j4_18_0" index="0" disallow="pedestrian" speed="13.89" length="4.24" width="3.50" shape="56.30,-118.60 55.54,-117.33 55.15,-114.60"/>
    </edge>
    <edge id=":j4_19" function="internal">
        <lane id=":j4_19_0" index="0" disallow="pedestrian" speed="13.89" length="13.02" width="3.50" shape="49.86,-129.86 45.88,-135.35 44.35,-141.40"/>
    </edge>
    <edge id=":j4_8" function="internal">
        <lane id=":j4_8_0" index="0" disallow="pedestrian" speed="13.89" length="5.84" width="3.50" shape="55.15,-141.40 55.54,-138.67 56.71,-136.71 57.40,-136.30"/>
    </edge>
    <edge id=":j4_9" function="internal">
        <lane id=":j4_9_0" index="0" disallow="pedestrian" speed="13.89" length="26.80" width="3.50" shape="55.15,-141.40 55.15,-114.60"/>
        <lane id=":j4_9_1" index="1" disallow="pedestrian" speed="13.89" length="26.80" width="3.50" shape="51.65,-141.40 51.65,-114.60"/>
    </edge>
    <edge id=":j4_11" function="internal">
        <lane id=":j4_11_0" index="0" disallow="pedestrian" speed="13.89" length="13.02" width="3.50" shape="51.65,-141.40 50.12,-135.35 46.14,-129.86"/>
    </edge>
    <edge id=":j4_20" function="internal">
        <lane id=":j4_20_0" index="0" disallow="pedestrian" speed="13.89" length="4.24" width="3.50" shape="57.40,-136.30 58.67,-135.54 61.40,-135.15"/>
    </edge>
    <edge id=":j4_21" function="internal">
        <lane id=":j4_21_0" index="0" disallow="pedestrian" speed="13.89" length="13.02" width="3.50" shape="46.14,-129.86 40.65,-125.88 34.60,-124.35"/>
    </edge>
    <edge id=":j4_12" function="internal">
        <lane id=":j4_12_0" index="0" disallow="pedestrian" speed="13.89" length="5.84" width="3.50" shape="34.60,-135.15 37.33,-135.54 39.29,-136.71 39.70,-137.40"/>
    </edge>
    <edge id=":j4_13" function="internal">
        <lane id=":j4_13_0" index="0" disallow="pedestrian" speed="13.89" length="26.80" width="3.50" shape="34.60,-135.15 61.40,-135.15"/>
        <lane id=":j4_13_1" index="1" disallow="pedestrian" speed="13.89" length="26.80" width="3.50" shape="34.60,-131.65 61.40,-131.65"/>
    </edge>
    <edge id=":j4_15" function="internal">
        <lane id=":j4_15_0" index="0" disallow="pedestrian" speed="13.89" length="13.02" width="3.50" shape="34.60,-131.65 40.65,-130.12 46.14,-126.14"/>
    </edge>
    <edge id=":j4_22" function="internal">
        <lane id=":j4_22_0" index="0" disallow="pedestrian" speed="13.89" length="4.24" width="3.50" shape="39.70,-137.40 40.46,-138.67 40.85,-141.40"/>
    </edge>
    <edge id=":j4_23" function="internal">
        <lane id=":j4_23_0" index="0" disallow="pedestrian" speed="13.89" length="13.02" width="3.50" shape="46.14,-126.14 50.12,-120.65 51.65,-114.60"/>
    </edge>
    <edge id=":j4_c0" function="crossing" crossingEdges="n5 s5">
        <lane id=":j4_c0_0" index="0" allow="pedestrian" speed="1.00" length="17.80" width="4.00" shape="56.90,-116.60 39.10,-116.60"/>
    </edge>
    <edge id=":j4_c1" function="crossing" crossingEdges="e6 w6">
        <lane id=":j4_c1_0" index="0" allow="pedestrian" speed="1.00" length="17.80" width="4.00" shape="59.40,-136.90 59.40,-119.10"/>
    </edge>
    <edge id=":j4_c2" function="crossing" crossingEdges="s6 n6">
        <lane id=":j4_c2_0" index="0" allow="pedestrian" speed="1.00" length="17.80" width="4.00" shape="39.10,-139.40 56.90,-139.40"/>
    </edge>
    <edge id=":j4_c3" function="crossing" crossingEdges="w5 e5">
        <lane id=":j4_c3_0" index="0" allow="pedestrian" speed="1.00" length="17.80" width="4.00" shape="36.60,-119.10 36.60,-136.90"/>
    </edge>
    <edge id=":j4_w0" function="walkingarea">
        <lane id=":j4_w0_0" index="0" allow="pedestrian" speed="1.00" length="3.67" width="4.00" shape="38.60,-119.10 34.60,-119.10 34.60,-116.10 36.10,-114.60 39.10,-114.60 39.10,-118.60"/>
    </edge>
    <edge id=":j4_w1" function="walkingarea">
        <lane id=":j4_w1_0" index="0" allow="pedestrian" speed="1.00" length="3.67" width="4.00" shape="56.90,-118.60 56.90,-114.60 59.90,-114.60 61.40,-116.10 61.40,-119.10 57.40,-119.10"/>
    </edge>
    <edge id=":j4_w2" function="walkingarea">
        <lane id=":j4_w2_0" index="0" allow="pedestrian" speed="1.00" length="3.67" width="4.00" shape="57.40,-136.90 61.40,-136.90 61.40,-139.90 59.90,-141.40 56.90,-141.40 56.90,-137.40"/>
    </edge>
    <edge id=":j4_w3" function="walkingarea">
        <lane id=":j4_w3_0" index="0" allow="pedestrian" speed="1.00" length="3.67" width="4.00" shape="39.10,-137.40 39.10,-141.40 36.10,-141.40 34.60,-139.90 34.60,-136.90 38.60,-136.90"/>
    </edge>
    <edge id=":t1_c0" function="crossing" crossingEdges="e1 w1">
        <lane id=":t1_c0_0" index="0" allow="pedestrian" speed="1.00" length="14.00" width="4.00" shape="-228.10,-35.00 -228.10,-21.00"/>
    </edge>
    <edge id=":t1_w0" function="walkingarea">
        <lane id=":t1_w0_0" index="0" allow="pedestrian" speed="1.00" length="2.50" width="4.00" shape="-230.10,-35.00 -226.10,-35.00 -226.10,-38.00"/>