<?xml version="1.0" encoding="UTF-8"?>

<!-- generated on 01/03/21 13:27:12 by Eclipse SUMO netedit Version 1.7.0
<configuration xmlns:xsi="http://www.w3.org/2001/XMLSchema-instance" xsi:noNamespaceSchemaLocation="http://sumo.dlr.de/xsd/netconvertConfiguration.xsd">

    <input>
        <sumo-net-file value="C:\Users\karumanchi.1\Box\SIMCenter\AV_consortium_project\sumo_layout\SUMo_UE_correlation_check\unreal_layout_custom_widths_final_pedestrians.net.xml"/>
    </input>

    <output>
        <output-file value="C:\Users\karumanchi.1\Box\SIMCenter\AV_consortium_project\sumo_layout\SUMo_UE_correlation_check\unreal_layout_custom_widths_final_pedestrians.net.xml"/>
    </output>

    <processing>
        <geometry.min-radius.fix.railways value="false"/>
        <geometry.max-grade.fix value="false"/>
        <offset.disable-normalization value="true"/>
        <lefthand value="false"/>
    </processing>

    <junctions>
        <no-internal-links value="false"/>
        <no-turnarounds value="true"/>
        <junctions.corner-detail value="0"/>
        <junctions.limit-turn-speed value="-1"/>
        <rectangular-lane-cut value="false"/>
    </junctions>

    <pedestrian>
        <walkingareas value="false"/>
    </pedestrian>

    <report>
        <aggregate-warnings value="5"/>
    </report>

</configuration>
-->

<net version="1.6" xmlns:xsi="http://www.w3.org/2001/XMLSchema-instance" xsi:noNamespaceSchemaLocation="http://sumo.dlr.de/xsd/net_file.xsd">

    <location netOffset="0.00,0.00" convBoundary="-227.15,-245.80,178.65,76.00" origBoundary="-10000000000.00,-10000000000.00,10000000000.00,10000000000.00" projParameter="!"/>

    <edge id=":j1_0" function="internal">
        <lane id=":j1_0_0" index="0" disallow="pedestrian" speed="13.89" length="5.00" width="3.50" shape="-97.75,-17.00 -98.11,-19.52 -99.19,-21.31 -99.50,-21.50"/>
    </edge>
    <edge id=":j1_1" function="internal">
        <lane id=":j1_1_0" index="0" disallow="pedestrian rail_fast" speed="13.89" length="24.38" width="3.50" shape="-97.75,-17.00 -97.78,-41.28"/>
        <lane id=":j1_1_1" index="1" disallow="pedestrian rail_fast" speed="13.89" length="24.38" width="3.50" shape="-94.25,-17.00 -94.28,-41.38"/>
        <lane id=":j1_1_2" index="2" disallow="pedestrian rail_fast" speed="13.89" length="24.38" width="3.50" shape="-90.75,-17.00 -90.78,-41.49"/>
    </edge>
    <edge id=":j1_4" function="internal">
        <lane id=":j1_4_0" index="0" disallow="pedestrian" speed="13.89" length="6.85" width="3.50" shape="-90.75,-17.00 -89.73,-22.58 -89.01,-23.51"/>
    </edge>
    <edge id=":j1_18" function="internal">
        <lane id=":j1_18_0" index="0" disallow="pedestrian" speed="13.89" length="4.27" width="3.50" shape="-99.50,-21.50 -100.98,-22.39 -103.50,-22.75"/>
    </edge>
    <edge id=":j1_19" function="internal">
        <lane id=":j1_19_0" index="0" disallow="pedestrian" speed="13.89" length="16.70" width="3.50" shape="-89.01,-23.51 -86.66,-26.56 -81.55,-28.95 -74.39,-29.75"/>
    </edge>
    <edge id=":j1_5" function="internal">
        <lane id=":j1_5_0" index="0" disallow="pedestrian" speed="13.89" length="9.36" width="3.50" shape="-74.39,-22.75 -76.95,-22.39 -78.78,-21.31 -79.88,-19.52 -80.25,-17.00"/>
    </edge>
    <edge id=":j1_6" function="internal">
        <lane id=":j1_6_0" index="0" disallow="pedestrian" speed="13.89" length="29.11" width="3.50" shape="-74.39,-22.75 -103.50,-22.75"/>
        <lane id=":j1_6_1" index="1" disallow="pedestrian" speed="13.89" length="29.11" width="3.50" shape="-74.39,-26.25 -103.50,-26.25"/>
    </edge>
    <edge id=":j1_8" function="internal">
        <lane id=":j1_8_0" index="0" disallow="pedestrian rail_fast" speed="13.89" length="25.35" width="3.50" shape="-74.39,-26.25 -81.39,-27.20 -86.45,-30.06 -89.58,-34.82 -90.78,-41.49"/>
    </edge>
    <edge id=":j1_9" function="internal">
        <lane id=":j1_9_0" index="0" disallow="pedestrian rail_fast" speed="13.89" length="7.07" width="3.50" shape="-80.28,-41.80 -79.82,-38.06 -78.68,-35.39 -78.39,-35.13"/>
    </edge>
    <edge id=":j1_10" function="internal">
        <lane id=":j1_10_0" index="0" disallow="pedestrian rail_fast" speed="13.89" length="24.69" width="3.50" shape="-80.28,-41.80 -80.25,-17.00"/>
        <lane id=":j1_10_1" index="1" disallow="pedestrian rail_fast" speed="13.89" length="24.69" width="3.50" shape="-83.78,-41.69 -83.75,-17.00"/>
        <lane id=":j1_10_2" index="2" disallow="pedestrian rail_fast" speed="13.89" length="24.69" width="3.50" shape="-87.28,-41.59 -87.25,-17.00"/>
    </edge>
    <edge id=":j1_13" function="internal">
        <lane id=":j1_13_0" index="0" disallow="pedestrian rail_fast" speed="13.89" length="8.46" width="3.50" shape="-87.28,-41.59 -88.12,-34.88 -89.02,-33.44"/>
    </edge>
    <edge id=":j1_20" function="internal">
        <lane id=":j1_20_0" index="0" disallow="pedestrian rail_fast" speed="13.89" length="4.57" width="3.50" shape="-78.39,-35.13 -76.87,-33.78 -74.39,-33.25"/>
    </edge>
    <edge id=":j1_21" function="internal">
        <lane id=":j1_21_0" index="0" disallow="pedestrian rail_fast" speed="13.89" length="17.16" width="3.50" shape="-89.02,-33.44 -91.11,-30.09 -96.23,-27.21 -103.50,-26.25"/>
    </edge>
    <edge id=":j1_14" function="internal">
        <lane id=":j1_14_0" index="0" disallow="pedestrian rail_fast" speed="13.89" length="11.24" width="3.50" shape="-103.50,-33.25 -100.91,-33.75 -99.09,-35.26 -98.04,-37.77 -97.78,-41.28"/>
    </edge>
    <edge id=":j1_15" function="internal">
        <lane id=":j1_15_0" index="0" disallow="pedestrian" speed="13.89" length="29.11" width="3.50" shape="-103.50,-33.25 -74.39,-33.25"/>
        <lane id=":j1_15_1" index="1" disallow="pedestrian" speed="13.89" length="29.11" width="3.50" shape="-103.50,-29.75 -74.39,-29.75"/>
    </edge>
    <edge id=":j1_17" function="internal">
        <lane id=":j1_17_0" index="0" disallow="pedestrian" speed="13.89" length="23.45" width="3.50" shape="-103.50,-29.75 -96.39,-28.95 -91.31,-26.56 -88.27,-22.58 -87.25,-17.00"/>
    </edge>
    <edge id=":j1_c0" function="crossing" crossingEdges="n1 s1">
        <lane id=":j1_c0_0" index="0" allow="pedestrian" speed="1.00" length="21.00" width="4.00" shape="-78.50,-19.00 -99.50,-19.00"/>
    </edge>
    <edge id=":j1_c1" function="crossing" crossingEdges="e2 w2">
        <lane id=":j1_c1_0" index="0" allow="pedestrian" speed="1.00" length="14.00" width="4.00" shape="-76.39,-35.00 -76.39,-21.00"/>
    </edge>
    <edge id=":j1_c2" function="crossing" crossingEdges="s2 n2">
        <lane id=":j1_c2_0" index="0" allow="pedestrian" speed="1.00" length="21.00" width="4.00" shape="-99.47,-39.23 -78.47,-39.85"/>
    </edge>
    <edge id=":j1_c3" function="crossing" crossingEdges="w1 e1">
        <lane id=":j1_c3_0" index="0" allow="pedestrian" speed="1.00" length="14.00" width="4.00" shape="-101.50,-21.00 -101.50,-35.00"/>
    </edge>
    <edge id=":j1_w0" function="walkingarea">
        <lane id=":j1_w0_0" index="0" allow="pedestrian" speed="1.00" length="3.30" width="4.00" shape="-99.50,-21.00 -103.50,-21.00 -103.50,-19.00 -101.50,-17.00 -99.50,-17.00 -99.50,-21.00"/>
    </edge>
    <edge id=":j1_w1" function="walkingarea">
        <lane id=":j1_w1_0" index="0" allow="pedestrian" speed="1.00" length="3.35" width="4.00" shape="-78.50,-21.00 -78.50,-17.00 -76.50,-17.00 -74.39,-19.00 -74.39,-21.00 -78.39,-21.00"/>
    </edge>
    <edge id=":j1_w2" function="walkingarea">
        <lane id=":j1_w2_0" index="0" allow="pedestrian" speed="1.00" length="4.84" width="4.00" shape="-78.39,-35.00 -74.39,-35.00 -74.39,-37.00 -76.54,-41.91 -78.53,-41.85 -78.41,-37.85"/>
    </edge>
    <edge id=":j1_w3" function="walkingarea">
        <lane id=":j1_w3_0" index="0" allow="pedestrian" speed="1.00" length="4.43" width="4.00" shape="-99.41,-37.23 -99.53,-41.22 -101.52,-41.17 -103.50,-37.00 -103.50,-35.00 -99.50,-35.00"/>
    </edge>
    <edge id=":j2_0" function="internal">
        <lane id=":j2_0_0" index="0" disallow="pedestrian" speed="13.89" length="9.27" width="3.50" shape="40.85,-17.00 40.49,-19.52 39.41,-21.31 37.62,-22.39 35.10,-22.75"/>
    </edge>
    <edge id=":j2_1" function="internal">
        <lane id=":j2_1_0" index="0" disallow="pedestrian" speed="13.89" length="22.04" width="3.50" shape="40.85,-17.00 40.85,-39.04"/>
        <lane id=":j2_1_1" index="1" disallow="pedestrian" speed="13.89" length="22.04" width="3.50" shape="44.35,-17.00 44.35,-39.04"/>
    </edge>
    <edge id=":j2_3" function="internal">
        <lane id=":j2_3_0" index="0" disallow="pedestrian rail_fast" speed="13.89" length="25.67" width="3.50" shape="44.35,-17.00 45.52,-22.65 49.04,-26.66 54.91,-29.02 63.12,-29.75"/>
    </edge>
    <edge id=":j2_4" function="internal">
        <lane id=":j2_4_0" index="0" disallow="pedestrian rail_fast" speed="13.89" length="6.62" width="3.50" shape="63.05,-22.75 59.59,-22.42 57.12,-21.35 56.84,-21.00"/>
    </edge>
    <edge id=":j2_5" function="internal">
        <lane id=":j2_5_0" index="0" disallow="pedestrian rail_fast" speed="13.89" length="27.97" width="3.50" shape="63.05,-22.75 35.10,-22.75"/>
        <lane id=":j2_5_1" index="1" disallow="pedestrian rail_fast" speed="13.89" length="27.97" width="3.50" shape="63.08,-26.25 35.10,-26.25"/>
    </edge>
    <edge id=":j2_7" function="internal">
        <lane id=":j2_7_0" index="0" disallow="pedestrian rail_fast" speed="13.89" length="10.54" width="3.50" shape="63.08,-26.25 54.89,-27.12 52.76,-28.00"/>
    </edge>
    <edge id=":j2_16" function="internal">
        <lane id=":j2_16_0" index="0" disallow="pedestrian rail_fast" speed="13.89" length="4.47" width="3.50" shape="56.84,-21.00 55.64,-19.55 55.15,-17.00"/>
    </edge>
    <edge id=":j2_17" function="internal">
        <lane id=":j2_17_0" index="0" disallow="pedestrian rail_fast" speed="13.89" length="14.99" width="3.50" shape="52.76,-28.00 49.03,-29.54 45.52,-33.52 44.35,-39.04"/>
    </edge>
    <edge id=":j2_8" function="internal">
        <lane id=":j2_8_0" index="0" disallow="pedestrian rail_fast" speed="13.89" length="11.15" width="3.50" shape="55.15,-39.04 55.65,-36.54 57.15,-34.74 59.65,-33.64 63.15,-33.25"/>
    </edge>
    <edge id=":j2_9" function="internal">
        <lane id=":j2_9_0" index="0" disallow="pedestrian" speed="13.89" length="22.04" width="3.50" shape="55.15,-39.04 55.15,-17.00"/>
        <lane id=":j2_9_1" index="1" disallow="pedestrian" speed="13.89" length="22.04" width="3.50" shape="51.65,-39.04 51.65,-17.00"/>
    </edge>
    <edge id=":j2_11" function="internal">
        <lane id=":j2_11_0" index="0" disallow="pedestrian" speed="13.89" length="23.74" width="3.50" shape="51.65,-39.04 50.62,-33.45 47.51,-29.45 42.34,-27.05 35.10,-26.25"/>
    </edge>
    <edge id=":j2_12" function="internal">
        <lane id=":j2_12_0" index="0" disallow="pedestrian" speed="13.89" length="5.04" width="3.50" shape="35.10,-33.25 37.62,-33.61 39.41,-34.70 39.62,-35.04"/>
    </edge>
    <edge id=":j2_13" function="internal">
        <lane id=":j2_13_0" index="0" disallow="pedestrian rail_fast" speed="13.89" length="28.03" width="3.50" shape="35.10,-33.25 63.15,-33.25"/>
        <lane id=":j2_13_1" index="1" disallow="pedestrian rail_fast" speed="13.89" length="28.03" width="3.50" shape="35.10,-29.75 63.12,-29.75"/>
    </edge>
    <edge id=":j2_15" function="internal">
        <lane id=":j2_15_0" index="0" disallow="pedestrian" speed="13.89" length="9.56" width="3.50" shape="35.10,-29.75 42.34,-28.95 44.40,-28.00"/>
    </edge>
    <edge id=":j2_18" function="internal">
        <lane id=":j2_18_0" index="0" disallow="pedestrian" speed="13.89" length="4.27" width="3.50" shape="39.62,-35.04 40.49,-36.51 40.85,-39.04"/>
    </edge>
    <edge id=":j2_19" function="internal">
        <lane id=":j2_19_0" index="0" disallow="pedestrian" speed="13.89" length="14.15" width="3.50" shape="44.40,-28.00 47.51,-26.56 50.62,-22.58 51.65,-17.00"/>
    </edge>
    <edge id=":j2_c0" function="crossing" crossingEdges="n4 s4">
        <lane id=":j2_c0_0" index="0" allow="pedestrian" speed="1.00" length="17.80" width="4.00" shape="56.90,-19.00 39.10,-19.00"/>
    </edge>
    <edge id=":j2_c1" function="crossing" crossingEdges="e3 w3">
        <lane id=":j2_c1_0" index="0" allow="pedestrian" speed="1.00" length="14.00" width="4.00" shape="61.17,-35.02 61.03,-21.02"/>
    </edge>
    <edge id=":j2_c2" function="crossing" crossingEdges="s5 n5">
        <lane id=":j2_c2_0" index="0" allow="pedestrian" speed="1.00" length="17.80" width="4.00" shape="39.10,-37.04 56.90,-37.04"/>
    </edge>
    <edge id=":j2_c3" function="crossing" crossingEdges="w2 e2">
        <lane id=":j2_c3_0" index="0" allow="pedestrian" speed="1.00" length="14.00" width="4.00" shape="37.10,-21.00 37.10,-35.00"/>
    </edge>
    <edge id=":j2_w0" function="walkingarea">
        <lane id=":j2_w0_0" index="0" allow="pedestrian" speed="1.00" length="3.30" width="4.00" shape="39.10,-21.00 35.10,-21.00 35.10,-19.00 37.10,-17.00 39.10,-17.00 39.10,-21.00"/>
    </edge>
    <edge id=":j2_w1" function="walkingarea">
        <lane id=":j2_w1_0" index="0" allow="pedestrian" speed="1.00" length="4.38" width="4.00" shape="56.90,-21.00 56.90,-17.00 58.90,-17.00 63.01,-19.00 63.03,-21.00 59.03,-21.04"/>
    </edge>
    <edge id=":j2_w2" function="walkingarea">
        <lane id=":j2_w2_0" index="0" allow="pedestrian" speed="1.00" length="4.47" width="4.00" shape="59.17,-35.04 63.17,-35.00 63.19,-37.00 58.90,-39.04 56.90,-39.04 56.90,-35.04"/>
    </edge>
    <edge id=":j2_w3" function="walkingarea">
        <lane id=":j2_w3_0" index="0" allow="pedestrian" speed="1.00" length="3.32" width="4.00" shape="39.10,-35.04 39.10,-39.04 37.10,-39.04 35.10,-37.00 35.10,-35.00 39.10,-35.00"/>
    </edge>
    <edge id=":j3_0" function="internal">
        <lane id=":j3_0_0" index="0" disallow="pedestrian rail_fast" speed="13.89" length="9.18" width="3.50" shape="-75.78,-112.89 -76.34,-116.34 -77.96,-118.81 -80.34,-120.15"/>
    </edge>
    <edge id=":j3_1" function="internal">
        <lane id=":j3_1_0" index="0" disallow="pedestrian rail_fast" speed="13.89" length="27.95" width="3.50" shape="-75.78,-112.89 -75.66,-140.88"/>
        <lane id=":j3_1_1" index="1" disallow="pedestrian rail_fast" speed="13.89" length="27.95" width="3.50" shape="-72.28,-112.93 -72.16,-140.88"/>
        <lane id=":j3_1_2" index="2" disallow="pedestrian rail_fast" speed="13.89" length="27.95" width="3.50" shape="-68.78,-112.96 -68.66,-140.88"/>
    </edge>
    <edge id=":j3_4" function="internal">
        <lane id=":j3_4_0" index="0" disallow="pedestrian rail_fast" speed="13.89" length="6.43" width="3.50" shape="-68.78,-112.96 -68.04,-119.35"/>
    </edge>
    <edge id=":j3_18" function="internal">
        <lane id=":j3_18_0" index="0" disallow="pedestrian rail_fast" speed="13.89" length="4.07" width="3.50" shape="-80.34,-120.15 -80.62,-120.31 -84.33,-120.84"/>
    </edge>
    <edge id=":j3_19" function="internal">
        <lane id=":j3_19_0" index="0" disallow="pedestrian rail_fast" speed="13.89" length="21.93" width="3.50" shape="-68.04,-119.35 -67.83,-121.14 -64.78,-126.98 -59.64,-130.48 -52.41,-131.65"/>
    </edge>
    <edge id=":j3_5" function="internal">
        <lane id=":j3_5_0" index="0" disallow="pedestrian rail_fast" speed="13.89" length="7.00" width="3.50" shape="-52.41,-120.85 -55.01,-120.36 -56.85,-118.90 -57.67,-117.07"/>
    </edge>
    <edge id=":j3_6" function="internal">
        <lane id=":j3_6_0" index="0" disallow="pedestrian rail_fast" speed="13.89" length="31.90" width="3.50" shape="-52.41,-120.85 -84.33,-120.84"/>
        <lane id=":j3_6_1" index="1" disallow="pedestrian rail_fast" speed="13.89" length="31.90" width="3.50" shape="-52.41,-124.35 -84.30,-124.34"/>
    </edge>
    <edge id=":j3_8" function="internal">
        <lane id=":j3_8_0" index="0" disallow="pedestrian" speed="13.89" length="22.39" width="3.50" shape="-52.41,-124.35 -59.52,-125.38 -64.59,-128.48 -67.64,-133.65 -68.10,-136.89"/>
    </edge>
    <edge id=":j3_20" function="internal">
        <lane id=":j3_20_0" index="0" disallow="pedestrian rail_fast" speed="13.89" length="4.08" width="3.50" shape="-57.67,-117.07 -57.94,-116.47 -58.28,-113.07"/>
    </edge>
    <edge id=":j3_21" function="internal">
        <lane id=":j3_21_0" index="0" disallow="pedestrian" speed="13.89" length="4.04" width="3.50" shape="-68.10,-136.89 -68.66,-140.88"/>
    </edge>
    <edge id=":j3_9" function="internal">
        <lane id=":j3_9_0" index="0" disallow="pedestrian" speed="13.89" length="5.00" width="3.50" shape="-58.16,-140.90 -57.80,-138.38 -56.72,-136.59 -56.41,-136.40"/>
    </edge>
    <edge id=":j3_10" function="internal">
        <lane id=":j3_10_0" index="0" disallow="pedestrian rail_fast" speed="13.89" length="27.86" width="3.50" shape="-58.16,-140.90 -58.28,-113.07"/>
        <lane id=":j3_10_1" index="1" disallow="pedestrian rail_fast" speed="13.89" length="27.86" width="3.50" shape="-61.66,-140.89 -61.78,-113.03"/>
        <lane id=":j3_10_2" index="2" disallow="pedestrian rail_fast" speed="13.89" length="27.86" width="3.50" shape="-65.16,-140.89 -65.28,-113.00"/>
    </edge>
    <edge id=":j3_13" function="internal">
        <lane id=":j3_13_0" index="0" disallow="pedestrian rail_fast" speed="13.89" length="24.85" width="3.50" shape="-65.16,-140.89 -66.35,-133.58 -69.94,-128.38 -75.92,-125.30 -80.29,-124.80"/>
    </edge>
    <edge id=":j3_22" function="internal">
        <lane id=":j3_22_0" index="0" disallow="pedestrian" speed="13.89" length="4.27" width="3.50" shape="-56.41,-136.40 -54.93,-135.51 -52.41,-135.15"/>
    </edge>
    <edge id=":j3_23" function="internal">
        <lane id=":j3_23_0" index="0" disallow="pedestrian rail_fast" speed="13.89" length="4.03" width="3.50" shape="-80.29,-124.80 -84.30,-124.34"/>
    </edge>
    <edge id=":j3_14" function="internal">
        <lane id=":j3_14_0" index="0" disallow="pedestrian rail_fast" speed="13.89" length="7.08" width="3.50" shape="-84.19,-135.14 -80.46,-135.47 -77.79,-136.53 -77.49,-136.88"/>
    </edge>
    <edge id=":j3_15" function="internal">
        <lane id=":j3_15_0" index="0" disallow="pedestrian rail_fast" speed="13.89" length="31.80" width="3.50" shape="-84.19,-135.14 -52.41,-135.15"/>
        <lane id=":j3_15_1" index="1" disallow="pedestrian rail_fast" speed="13.89" length="31.80" width="3.50" shape="-84.22,-131.64 -52.41,-131.65"/>
    </edge>
    <edge id=":j3_17" function="internal">
        <lane id=":j3_17_0" index="0" disallow="pedestrian rail_fast" speed="13.89" length="26.13" width="3.50" shape="-84.22,-131.64 -76.01,-130.40 -70.11,-126.89 -66.53,-121.08 -65.90,-116.99"/>
    </edge>
    <edge id=":j3_24" function="internal">
        <lane id=":j3_24_0" index="0" disallow="pedestrian rail_fast" speed="13.89" length="4.55" width="3.50" shape="-77.49,-136.88 -76.19,-138.34 -75.66,-140.88"/>
    </edge>
    <edge id=":j3_25" function="internal">
        <lane id=":j3_25_0" index="0" disallow="pedestrian rail_fast" speed="13.89" length="4.04" width="3.50" shape="-65.90,-116.99 -65.28,-113.00"/>
    </edge>
    <edge id=":j3_c0" function="crossing" crossingEdges="n2 s2">
        <lane id=":j3_c0_0" index="0" allow="pedestrian" speed="1.00" length="21.00" width="4.00" shape="-56.55,-115.08 -77.55,-114.87"/>
    </edge>
    <edge id=":j3_c1" function="crossing" crossingEdges="e5 w5">
        <lane id=":j3_c1_0" index="0" allow="pedestrian" speed="1.00" length="17.80" width="4.00" shape="-54.41,-136.90 -54.41,-119.10"/>
    </edge>
    <edge id=":j3_c2" function="crossing" crossingEdges="s3 n3">
        <lane id=":j3_c2_0" index="0" allow="pedestrian" speed="1.00" length="21.00" width="4.00" shape="-77.41,-138.88 -56.41,-138.90"/>
    </edge>
    <edge id=":j3_c3" function="crossing" crossingEdges="w4 e4">
        <lane id=":j3_c3_0" index="0" allow="pedestrian" speed="1.00" length="17.80" width="4.00" shape="-82.35,-119.07 -82.17,-136.87"/>
    </edge>
    <edge id=":j3_w0" function="walkingarea">
        <lane id=":j3_w0_0" index="0" allow="pedestrian" speed="1.00" length="5.58" width="4.00" shape="-80.35,-119.05 -84.35,-119.09 -84.37,-117.09 -79.53,-112.86 -77.53,-112.88 -77.57,-116.87"/>
    </edge>
    <edge id=":j3_w1" function="walkingarea">
        <lane id=":j3_w1_0" index="0" allow="pedestrian" speed="1.00" length="4.36" width="4.00" shape="-56.57,-117.08 -56.53,-113.08 -54.53,-113.10 -52.41,-117.10 -52.41,-119.10 -56.41,-119.10"/>
    </edge>
    <edge id=":j3_w2" function="walkingarea">
        <lane id=":j3_w2_0" index="0" allow="pedestrian" speed="1.00" length="3.30" width="4.00" shape="-56.41,-136.90 -52.41,-136.90 -52.41,-138.90 -54.41,-140.90 -56.41,-140.90 -56.41,-136.90"/>
    </edge>
    <edge id=":j3_w3" function="walkingarea">
        <lane id=":j3_w3_0" index="0" allow="pedestrian" speed="1.00" length="4.74" width="4.00" shape="-77.41,-136.88 -77.41,-140.88 -79.41,-140.87 -84.15,-138.89 -84.17,-136.89 -80.17,-136.85"/>
    </edge>
    <edge id=":j4_0" function="internal">
        <lane id=":j4_0_0" index="0" disallow="pedestrian" speed="13.89" length="5.00" width="3.50" shape="40.85,-115.10 40.49,-117.62 39.41,-119.41 39.10,-119.60"/>
    </edge>
    <edge id=":j4_1" function="internal">
        <lane id=":j4_1_0" index="0" disallow="pedestrian" speed="13.89" length="25.80" width="3.50" shape="40.85,-115.10 40.85,-140.90"/>
        <lane id=":j4_1_1" index="1" disallow="pedestrian" speed="13.89" length="25.80" width="3.50" shape="44.35,-115.10 44.35,-140.90"/>
    </edge>
    <edge id=":j4_3" function="internal">
        <lane id=":j4_3_0" index="0" disallow="pedestrian" speed="13.89" length="14.99" width="3.50" shape="44.35,-115.10 45.84,-120.98 49.70,-126.30 51.60,-127.68"/>
    </edge>
    <edge id=":j4_16" function="internal">
        <lane id=":j4_16_0" index="0" disallow="pedestrian" speed="13.89" length="4.27" width="3.50" shape="39.10,-119.60 37.62,-120.49 35.10,-120.85"/>
    </edge>
    <edge id=":j4_17" function="internal">
        <lane id=":j4_17_0" index="0" disallow="pedestrian" speed="13.89" length="10.28" width="3.50" shape="51.60,-127.68 55.02,-130.16 60.90,-131.65"/>
    </edge>
    <edge id=":j4_4" function="internal">
        <lane id=":j4_4_0" index="0" disallow="pedestrian" speed="13.89" length="9.27" width="3.50" shape="60.90,-120.85 58.38,-120.49 56.59,-119.41 55.51,-117.62 55.15,-115.10"/>
    </edge>
    <edge id=":j4_5" function="internal">
        <lane id=":j4_5_0" index="0" disallow="pedestrian" speed="13.89" length="25.80" width="3.50" shape="60.90,-120.85 35.10,-120.85"/>
        <lane id=":j4_5_1" index="1" disallow="pedestrian" speed="13.89" length="25.80" width="3.50" shape="60.90,-124.35 35.10,-124.35"/>
    </edge>
    <edge id=":j4_7" function="internal">
        <lane id=":j4_7_0" index="0" disallow="pedestrian" speed="13.89" length="25.28" width="3.50" shape="60.90,-124.35 55.02,-125.84 49.70,-129.70 45.84,-135.02 44.35,-140.90"/>
    </edge>
    <edge id=":j4_8" function="internal">
        <lane id=":j4_8_0" index="0" disallow="pedestrian" speed="13.89" length="5.00" width="3.50" shape="55.15,-140.90 55.51,-138.38 56.59,-136.59 56.90,-136.40"/>
    </edge>
    <edge id=":j4_9" function="internal">
        <lane id=":j4_9_0" index="0" disallow="pedestrian" speed="13.89" length="25.80" width="3.50" shape="55.15,-140.90 55.15,-115.10"/>
        <lane id=":j4_9_1" index="1" disallow="pedestrian" speed="13.89" length="25.80" width="3.50" shape="51.65,-140.90 51.65,-115.10"/>
    </edge>
    <edge id=":j4_11" function="internal">
        <lane id=":j4_11_0" index="0" disallow="pedestrian" speed="13.89" length="14.99" width="3.50" shape="51.65,-140.90 50.16,-135.02 46.30,-129.70 44.40,-128.32"/>
    </edge>
    <edge id=":j4_18" function="internal">
        <lane id=":j4_18_0" index="0" disallow="pedestrian" speed="13.89" length="4.27" width="3.50" shape="56.90,-136.40 58.38,-135.51 60.90,-135.15"/>
    </edge>
    <edge id=":j4_19" function="internal">
        <lane id=":j4_19_0" index="0" disallow="pedestrian" speed="13.89" length="10.28" width="3.50" shape="44.40,-128.32 40.98,-125.84 35.10,-124.35"/>
    </edge>
    <edge id=":j4_12" function="internal">
        <lane id=":j4_12_0" index="0" disallow="pedestrian" speed="13.89" length="9.27" width="3.50" shape="35.10,-135.15 37.62,-135.51 39.41,-136.59 40.49,-138.38 40.85,-140.90"/>
    </edge>
    <edge id=":j4_13" function="internal">
        <lane id=":j4_13_0" index="0" disallow="pedestrian" speed="13.89" length="25.80" width="3.50" shape="35.10,-135.15 60.90,-135.15"/>
        <lane id=":j4_13_1" index="1" disallow="pedestrian" speed="13.89" length="25.80" width="3.50" shape="35.10,-131.65 60.90,-131.65"/>
    </edge>
    <edge id=":j4_15" function="internal">
        <lane id=":j4_15_0" index="0" disallow="pedestrian" speed="13.89" length="25.28" width="3.50" shape="35.10,-131.65 40.98,-130.16 46.30,-126.30 50.16,-120.98 51.65,-115.10"/>
    </edge>
    <edge id=":j4_c0" function="crossing" crossingEdges="n5 s5">
        <lane id=":j4_c0_0" index="0" allow="pedestrian" speed="1.00" length="17.80" width="4.00" shape="56.90,-117.10 39.10,-117.10"/>
    </edge>
    <edge id=":j4_c1" function="crossing" crossingEdges="e6 w6">
        <lane id=":j4_c1_0" index="0" allow="pedestrian" speed="1.00" length="17.80" width="4.00" shape="58.90,-136.90 58.90,-119.10"/>
    </edge>
    <edge id=":j4_c2" function="crossing" crossingEdges="s6 n6">
        <lane id=":j4_c2_0" index="0" allow="pedestrian" speed="1.00" length="17.80" width="4.00" shape="39.10,-138.90 56.90,-138.90"/>
    </edge>
    <edge id=":j4_c3" function="crossing" crossingEdges="w5 e5">
        <lane id=":j4_c3_0" index="0" allow="pedestrian" speed="1.00" length="17.80" width="4.00" shape="37.10,-119.10 37.10,-136.90"/>
    </edge>
    <edge id=":j4_w0" function="walkingarea">
        <lane id=":j4_w0_0" index="0" allow="pedestrian" speed="1.00" length="3.30" width="4.00" shape="39.10,-119.10 35.10,-119.10 35.10,-117.10 37.10,-115.10 39.10,-115.10 39.10,-119.10"/>
    </edge>
    <edge id=":j4_w1" function="walkingarea">
        <lane id=":j4_w1_0" index="0" allow="pedestrian" speed="1.00" length="3.30" width="4.00" shape="56.90,-119.10 56.90,-115.10 58.90,-115.10 60.90,-117.10 60.90,-119.10 56.90,-119.10"/>
    </edge>
    <edge id=":j4_w2" function="walkingarea">
        <lane id=":j4_w2_0" index="0" allow="pedestrian" speed="1.00" length="3.30" width="4.00" shape="56.90,-136.90 60.90,-136.90 60.90,-138.90 58.90,-140.90 56.90,-140.90 56.90,-136.90"/>
    </edge>
    <edge id=":j4_w3" function="walkingarea">
        <lane id=":j4_w3_0" index="0" allow="pedestrian" speed="1.00" length="3.30" width="4.00" shape="39.10,-136.90 39.10,-140.90 37.10,-140.90 35.10,-138.90 35.10,-136.90 39.10,-136.90"/>
    </edge>
    <edge id=":t1_c0" function="crossing" crossingEdges="e1 w1">
        <lane id=":t1_c0_0" index="0" allow="pedestrian" speed="1.00" length="14.00" width="4.00" shape="-228.10,-35.00 -228.10,-21.00"/>
    </edge>
    <edge id=":t1_w0" function="walkingarea">
        <lane id=":t1_w0_0" index="0" allow="pedestrian" speed="1.00" length="2.24" width="4.00" shape="-230.10,-35.00 -226.10,-35.00 -226.10,-37.00"/>
    </edge>
    <edge id=":t1_w1" function="walkingarea">
        <lane id=":t1_w1_0" index="0" allow="pedestrian" speed="1.00" length="2.24" width="4.00" shape="-226.10,-19.00 -226.10,-21.00 -230.10,-21.00"/>
    </edge>
    <edge id=":t2_c0" function="crossing" crossingEdges="s1 n1">
        <lane id=":t2_c0_0" index="0" allow="pedestrian" speed="1.00" length="21.00" width="4.00" shape="-99.50,78.00 -78.50,78.00"/>
    </edge>
    <edge id=":t2_w0" function="walkingarea">
        <lane id=":t2_w0_0" index="0" allow="pedestrian" speed="1.00" length="2.24" width="4.00" shape="-99.50,80.00 -99.50,76.00 -101.50,76.00"/>
    </edge>
    <edge id=":t2_w1" function="walkingarea">
        <lane id=":t2_w1_0" index="0" allow="pedestrian" speed="1.00" length="2.24" width="4.00" shape="-76.50,76.00 -78.50,76.00 -78.50,80.00"/>
    </edge>
    <edge id=":t3_c0" function="crossing" crossingEdges="s4 n4">
        <lane id=":t3_c0_0" index="0" allow="pedestrian" speed="1.00" length="17.80" width="4.00" shape="39.10,70.00 56.90,70.00"/>
    </edge>
    <edge id=":t3_w0" function="walkingarea">
        <lane id=":t3_w0_0" index="0" allow="pedestrian" speed="1.00" length="2.24" width="4.00" shape="39.10,72.00 39.10,68.00 37.10,68.00"/>
    </edge>
    <edge id=":t3_w1" function="walkingarea">
        <lane id=":t3_w1_0" index="0" allow="pedestrian" speed="1.00" length="2.24" width="4.00" shape="58.90,68.00 56.90,68.00 56.90,72.00"/>
    </edge>
    <edge id=":t4_c0" function="crossing" crossingEdges="e4 w4">
        <lane id=":t4_c0_0" index="0" allow="pedestrian" speed="1.00" length="17.80" width="4.00" shape="-229.68,-79.28 -228.61,-61.51"/>
    </edge>
    <edge id=":t4_w0" function="walkingarea">
        <lane id=":t4_w0_0" index="0" allow="pedestrian" speed="1.00" length="2.24" width="4.00" shape="-231.68,-79.16 -227.69,-79.40 -227.81,-81.40"/>
    </edge>
    <edge id=":t4_w1" function="walkingarea">
        <lane id=":t4_w1_0" index="0" allow="pedestrian" speed="1.00" length="2.24" width="4.00" shape="-226.49,-59.64 -226.61,-61.64 -230.60,-61.39"/>
    </edge>
    <edge id=":t5_c0" function="crossing" crossingEdges="n3 s3">
        <lane id=":t5_c0_0" index="0" allow="pedestrian" speed="1.00" length="21.00" width="4.00" shape="-56.50,-224.01 -77.50,-223.99"/>
    </edge>
    <edge id=":t5_w0" function="walkingarea">